<?xml version="1.0" encoding="UTF-8"?>

<!-- generated on 2026-04-07 00:16:49.970767 by Eclipse SUMO randomTrips.py v1_25_0+0000-ac6c5a6752d
<configuration>
    <net-file value="D:\ResQFlow_ML\sumo\scenarios\mysore.net.xml"/>
    <output-trip-file value="D:\ResQFlow_ML\sumo\scenarios\mysore.trips.xml"/>
    <route-file value="D:\ResQFlow_ML\sumo\scenarios\mysore.rou.xml"/>
    <vehicle-class value="passenger"/>
    <period value="5.0"/>
</configuration>
-->

<routes xmlns:xsi="http://www.w3.org/2001/XMLSchema-instance" xsi:noNamespaceSchemaLocation="http://sumo.dlr.de/xsd/routes_file.xsd">
    <vType id="passenger" vClass="passenger"/>
    <trip id="0" depart="0.00" from="31136038#4" to="-1315251841" type="passenger"/>
    <trip id="1" depart="5.00" from="-324871564" to="-319659786#1" type="passenger"/>
    <trip id="2" depart="10.00" from="319663654#12" to="319536932#8" type="passenger"/>
    <trip id="3" depart="15.00" from="360845850" to="-28186483#5" type="passenger"/>
    <trip id="4" depart="20.00" from="-822403023#3" to="-155751165#6" type="passenger"/>
    <trip id="5" depart="25.00" from="-319657621#1" to="1315248296#0" type="passenger"/>
    <trip id="6" depart="30.00" from="-1303398338#0" to="-319540046#2" type="passenger"/>
    <trip id="7" depart="35.00" from="315927366" to="233249040#2" type="passenger"/>
    <trip id="8" depart="40.00" from="-319657642#2" to="28213535#3" type="passenger"/>
    <trip id="9" depart="45.00" from="326150420#0" to="319542686#2" type="passenger"/>
    <trip id="10" depart="50.00" from="-360315596" to="-316169371#1" type="passenger"/>
    <trip id="11" depart="55.00" from="826123049" to="-360318388#2" type="passenger"/>
    <trip id="12" depart="60.00" from="-28186493#4" to="-28195257#1" type="passenger"/>
    <trip id="13" depart="65.00" from="360330381#1" to="28245990#6" type="passenger"/>
    <trip id="14" depart="70.00" from="326151115#2" to="319663654#10" type="passenger"/>
    <trip id="15" depart="75.00" from="231429519#5" to="826414528#10" type="passenger"/>
    <trip id="16" depart="80.00" from="-360693964#5" to="257431313#1" type="passenger"/>
    <trip id="17" depart="85.00" from="360213518#0" to="28451047#3" type="passenger"/>
    <trip id="18" depart="90.00" from="360515282#3" to="28186493#8" type="passenger"/>
    <trip id="19" depart="95.00" from="319542683#3" to="-231431523#8" type="passenger"/>
    <trip id="20" depart="100.00" from="-319659794#3" to="-326135798#0" type="passenger"/>
    <trip id="21" depart="105.00" from="-26654756#1" to="-319663200#4" type="passenger"/>
    <trip id="22" depart="110.00" from="-28195257#5" to="-324877342#2" type="passenger"/>
    <trip id="23" depart="115.00" from="28496282" to="-360688891#1" type="passenger"/>
    <trip id="24" depart="120.00" from="-360688870#1" to="-319562610#1" type="passenger"/>
    <trip id="25" depart="125.00" from="-320147256" to="824548684" type="passenger"/>
    <trip id="26" depart="130.00" from="315427805" to="28268720#6" type="passenger"/>
    <trip id="27" depart="135.00" from="-319392760#3" to="319663205#1" type="passenger"/>
    <trip id="28" depart="140.00" from="-317375239" to="-360829795#1" type="passenger"/>
    <trip id="29" depart="145.00" from="86260519#11" to="313176067#13" type="passenger"/>
    <trip id="30" depart="150.00" from="257422313#2" to="319536971#7" type="passenger"/>
    <trip id="31" depart="155.00" from="360318384#4" to="324877345" type="passenger"/>
    <trip id="32" depart="160.00" from="-319659802#7" to="-193442317#13" type="passenger"/>
    <trip id="33" depart="165.00" from="-326190265#3" to="-324867237#1" type="passenger"/>
    <trip id="34" depart="170.00" from="-319558346#0" to="824830847#3" type="passenger"/>
    <trip id="35" depart="175.00" from="360691183#1" to="-326190897#6" type="passenger"/>
    <trip id="36" depart="180.00" from="316169374#2" to="-50335670#10" type="passenger"/>
    <trip id="37" depart="185.00" from="632625104#0" to="-86258060#2" type="passenger"/>
    <trip id="38" depart="190.00" from="-320145113#1" to="-319887848#1" type="passenger"/>
    <trip id="39" depart="195.00" from="258147004#5" to="-320147263#6" type="passenger"/>
    <trip id="40" depart="200.00" from="28186497#5" to="396121469#1" type="passenger"/>
    <trip id="41" depart="205.00" from="-396121471#0" to="-319658020#0" type="passenger"/>
    <trip id="42" depart="210.00" from="86264727#14" to="140350237#1" type="passenger"/>
    <trip id="43" depart="215.00" from="-28186482#4" to="-231431526#7" type="passenger"/>
    <trip id="44" depart="220.00" from="-28226039" to="28496132#5" type="passenger"/>
    <trip id="45" depart="225.00" from="326134800#4" to="-824830847#0" type="passenger"/>
    <trip id="46" depart="230.00" from="-234376524#3" to="-360833416" type="passenger"/>
    <trip id="47" depart="235.00" from="86263898#12" to="231429519#4" type="passenger"/>
    <trip id="48" depart="240.00" from="826411002#5" to="360515435#2" type="passenger"/>
    <trip id="49" depart="245.00" from="-1202276819" to="319659807#1" type="passenger"/>
    <trip id="50" depart="250.00" from="319536911#2" to="232290206#3" type="passenger"/>
    <trip id="51" depart="255.00" from="-320147254#0" to="315427804#5" type="passenger"/>
    <trip id="52" depart="260.00" from="-28244273#3" to="-826077848#0" type="passenger"/>
    <trip id="53" depart="265.00" from="-826358220#1" to="825727969#0" type="passenger"/>
    <trip id="54" depart="270.00" from="360691175#2" to="-320147278#4" type="passenger"/>
    <trip id="55" depart="275.00" from="1244097847#0" to="-319536897#13" type="passenger"/>
    <trip id="56" depart="280.00" from="609934196#2" to="360691135#1" type="passenger"/>
    <trip id="57" depart="285.00" from="-326137645#0" to="313176060#7" type="passenger"/>
    <trip id="58" depart="290.00" from="28245970#11" to="-316003518" type="passenger"/>
    <trip id="59" depart="295.00" from="320145108#1" to="233244374#5" type="passenger"/>
    <trip id="60" depart="300.00" from="324877291" to="231431523#10" type="passenger"/>
    <trip id="61" depart="305.00" from="-1042959306" to="-360279204#1" type="passenger"/>
    <trip id="62" depart="310.00" from="-1256472120#0" to="822236221#2" type="passenger"/>
    <trip id="63" depart="315.00" from="360695057#3" to="360301501" type="passenger"/>
    <trip id="64" depart="320.00" from="-326150423#2" to="-233249039#3" type="passenger"/>
    <trip id="65" depart="325.00" from="360695049" to="824867134#2" type="passenger"/>
    <trip id="66" depart="330.00" from="-28121214#1" to="1202288396#0" type="passenger"/>
    <trip id="67" depart="335.00" from="-257431317#3" to="320147282#3" type="passenger"/>
    <trip id="68" depart="340.00" from="320147263#5" to="-28451047#4" type="passenger"/>
    <trip id="69" depart="345.00" from="-86260525#4" to="255620861#7" type="passenger"/>
    <trip id="70" depart="350.00" from="-320145117#1" to="360691156#2" type="passenger"/>
    <trip id="71" depart="355.00" from="-823441939#0" to="-319562638#1" type="passenger"/>
    <trip id="72" depart="360.00" from="231431526#9" to="319663654#15" type="passenger"/>
    <trip id="73" depart="365.00" from="-319540037#1" to="-326190337#1" type="passenger"/>
    <trip id="74" depart="370.00" from="86260566#10" to="316324619#3" type="passenger"/>
    <trip id="75" depart="375.00" from="-824875171#0" to="193442670#3" type="passenger"/>
    <trip id="76" depart="380.00" from="-28268520#6" to="-319659802#1" type="passenger"/>
    <trip id="77" depart="385.00" from="-360314925#0" to="28195477#1" type="passenger"/>
    <trip id="78" depart="390.00" from="-319659807#5" to="-319658454#2" type="passenger"/>
    <trip id="79" depart="395.00" from="-258147003#2" to="305502407#1" type="passenger"/>
    <trip id="80" depart="400.00" from="-319659802#2" to="50335653#2" type="passenger"/>
    <trip id="81" depart="405.00" from="360511885#3" to="-258147039#3" type="passenger"/>
    <trip id="82" depart="410.00" from="-319663653#5" to="319512986#4" type="passenger"/>
    <trip id="83" depart="415.00" from="-319562619#1" to="-28485643#1" type="passenger"/>
    <trip id="84" depart="420.00" from="824133534#17" to="28121214#34" type="passenger"/>
    <trip id="85" depart="425.00" from="-86260492#7" to="326134769#1" type="passenger"/>
    <trip id="86" depart="430.00" from="326151120#0" to="-319539944#6" type="passenger"/>
    <trip id="87" depart="435.00" from="-28186538#1" to="-825723680" type="passenger"/>
    <trip id="88" depart="440.00" from="-823685596#5" to="-86260549#3" type="passenger"/>
    <trip id="89" depart="445.00" from="319659814#3" to="319536897#12" type="passenger"/>
    <trip id="90" depart="450.00" from="85572502#4" to="-28195371#18" type="passenger"/>
    <trip id="91" depart="455.00" from="-50218341#0" to="-360330068#2" type="passenger"/>
    <trip id="92" depart="460.00" from="360515282#2" to="-319889675#1" type="passenger"/>
    <trip id="93" depart="465.00" from="-319536962#5" to="-826411021#1" type="passenger"/>
    <trip id="94" depart="470.00" from="-822403023#2" to="-324877351#1" type="passenger"/>
    <trip id="95" depart="475.00" from="-319887835#6" to="728955242#5" type="passenger"/>
    <trip id="96" depart="480.00" from="-825723702#1" to="360515462#0" type="passenger"/>
    <trip id="97" depart="485.00" from="233249037#12" to="-232290206#6" type="passenger"/>
    <trip id="98" depart="490.00" from="86264731#5" to="360315599" type="passenger"/>
    <trip id="99" depart="495.00" from="826406197#0" to="747763040#10" type="passenger"/>
    <trip id="100" depart="500.00" from="360337304" to="-319392755#2" type="passenger"/>
    <trip id="101" depart="505.00" from="1059854112" to="-319575373#5" type="passenger"/>
    <trip id="102" depart="510.00" from="-425778956#2" to="-233249042#3" type="passenger"/>
    <trip id="103" depart="515.00" from="-360693972#0" to="86258060#3" type="passenger"/>
    <trip id="104" depart="520.00" from="-320145117#4" to="326130088#2" type="passenger"/>
    <trip id="105" depart="525.00" from="-826361127#1" to="-824835307" type="passenger"/>
    <trip id="106" depart="530.00" from="826123052#1" to="86260567#11" type="passenger"/>
    <trip id="107" depart="535.00" from="255620861#0" to="319659786#0" type="passenger"/>
    <trip id="108" depart="540.00" from="-315927367#0" to="-326147123#22" type="passenger"/>
    <trip id="109" depart="545.00" from="826406192" to="28186502#9" type="passenger"/>
    <trip id="110" depart="550.00" from="232197853#1" to="320002574#8" type="passenger"/>
    <trip id="111" depart="555.00" from="-233244375#0" to="28195212#1" type="passenger"/>
    <trip id="112" depart="560.00" from="1256462663" to="360503671#2" type="passenger"/>
    <trip id="113" depart="565.00" from="-316003522#2" to="826132335#2" type="passenger"/>
    <trip id="114" depart="570.00" from="-267226849#2" to="-319536962#1" type="passenger"/>
    <trip id="115" depart="575.00" from="28195473#2" to="319536917#2" type="passenger"/>
    <trip id="116" depart="580.00" from="-319662797" to="-28268721#0" type="passenger"/>
    <trip id="117" depart="585.00" from="360836347" to="-319887842#1" type="passenger"/>
    <trip id="118" depart="590.00" from="28195371#32" to="28451169#13" type="passenger"/>
    <trip id="119" depart="595.00" from="-762819011#1" to="28195195#3" type="passenger"/>
    <trip id="120" depart="600.00" from="193442317#3" to="824133534#3" type="passenger"/>
    <trip id="121" depart="605.00" from="-319542656#9" to="319658458" type="passenger"/>
    <trip id="122" depart="610.00" from="-319663654#6" to="-50335670#15" type="passenger"/>
    <trip id="123" depart="615.00" from="319512081#1" to="-326150396#32" type="passenger"/>
    <trip id="124" depart="620.00" from="-326190271#2" to="320144199#5" type="passenger"/>
    <trip id="125" depart="625.00" from="-258147007#11" to="-85572505#8" type="passenger"/>
    <trip id="126" depart="630.00" from="86264727#39" to="86263898#12" type="passenger"/>
    <trip id="127" depart="635.00" from="-258147017" to="-319575369#0" type="passenger"/>
    <trip id="128" depart="640.00" from="-320145117#4" to="823723570#4" type="passenger"/>
    <trip id="129" depart="645.00" from="360696749#0" to="360696761#0" type="passenger"/>
    <trip id="130" depart="650.00" from="-360688864#0" to="-316747951#1" type="passenger"/>
    <trip id="131" depart="655.00" from="360299040#16" to="319559351#3" type="passenger"/>
    <trip id="132" depart="660.00" from="28246020#4" to="86260485#22" type="passenger"/>
    <trip id="133" depart="665.00" from="316012370" to="-1189374440#8" type="passenger"/>
    <trip id="134" depart="670.00" from="326190347#6" to="-326150396#13" type="passenger"/>
    <trip id="135" depart="675.00" from="319092175#1" to="824774856#0" type="passenger"/>
    <trip id="136" depart="680.00" from="-28451182#4" to="-28246016#0" type="passenger"/>
    <trip id="137" depart="685.00" from="-28213817#0" to="257431321#6" type="passenger"/>
    <trip id="138" depart="690.00" from="-324867233#1" to="28246049#0" type="passenger"/>
    <trip id="139" depart="695.00" from="319657624#3" to="-319558320#1" type="passenger"/>
    <trip id="140" depart="700.00" from="28496132#3" to="-320147287#0" type="passenger"/>
    <trip id="141" depart="705.00" from="1081152634#0" to="50335653#12" type="passenger"/>
    <trip id="142" depart="710.00" from="360330070#1" to="-28186523#2" type="passenger"/>
    <trip id="143" depart="715.00" from="-823685596#5" to="-324877328#0" type="passenger"/>
    <trip id="144" depart="720.00" from="-1059854134#0" to="324877273#11" type="passenger"/>
    <trip id="145" depart="725.00" from="295826414#5" to="-320147249#8" type="passenger"/>
    <trip id="146" depart="730.00" from="319686406#0" to="257431310#2" type="passenger"/>
    <trip id="147" depart="735.00" from="-824764742#1" to="-1189813139" type="passenger"/>
    <trip id="148" depart="740.00" from="-258147039#4" to="360823236#0" type="passenger"/>
    <trip id="149" depart="745.00" from="50218341#5" to="233249043#3" type="passenger"/>
    <trip id="150" depart="750.00" from="360299048#0" to="28195135#13" type="passenger"/>
    <trip id="151" depart="755.00" from="-31257277#5" to="-28424753#2" type="passenger"/>
    <trip id="152" depart="760.00" from="-326151115#2" to="396126129#9" type="passenger"/>
    <trip id="153" depart="765.00" from="326137619#4" to="360515435#0" type="passenger"/>
    <trip id="154" depart="770.00" from="396121468#3" to="-319562613#3" type="passenger"/>
    <trip id="155" depart="775.00" from="-319803270#2" to="-28213812#4" type="passenger"/>
    <trip id="156" depart="780.00" from="324877323#3" to="360829801#0" type="passenger"/>
    <trip id="157" depart="785.00" from="-50336375#5" to="28451253#4" type="passenger"/>
    <trip id="158" depart="790.00" from="-315927364#0" to="822247618#1" type="passenger"/>
    <trip id="159" depart="795.00" from="360688811#3" to="827217842#3" type="passenger"/>
    <trip id="160" depart="800.00" from="326154286#0" to="360701530#11" type="passenger"/>
    <trip id="161" depart="805.00" from="-1303209244#1" to="319686430#16" type="passenger"/>
    <trip id="162" depart="810.00" from="-360294199#0" to="822403023#1" type="passenger"/>
    <trip id="163" depart="815.00" from="326147133#5" to="360688846" type="passenger"/>
    <trip id="164" depart="820.00" from="326154285#1" to="-324051271#3" type="passenger"/>
    <trip id="165" depart="825.00" from="324922837#5" to="-28244345#1" type="passenger"/>
    <trip id="166" depart="830.00" from="-319658006#0" to="331012889#0" type="passenger"/>
    <trip id="167" depart="835.00" from="-826411032#1" to="-326154259#1" type="passenger"/>
    <trip id="168" depart="840.00" from="326137617#4" to="-319659819#1" type="passenger"/>
    <trip id="169" depart="845.00" from="-1267051200" to="-319540000" type="passenger"/>
    <trip id="170" depart="850.00" from="-358303104#29" to="360688852#1" type="passenger"/>
    <trip id="171" depart="855.00" from="826361129#3" to="-324877359#0" type="passenger"/>
    <trip id="172" depart="860.00" from="311852704#0" to="-50336415#6" type="passenger"/>
    <trip id="173" depart="865.00" from="85564965#0" to="232219750#0" type="passenger"/>
    <trip id="174" depart="870.00" from="824766246#0" to="-28246008#6" type="passenger"/>
    <trip id="175" depart="875.00" from="826410999#0" to="-319536897#11" type="passenger"/>
    <trip id="176" depart="880.00" from="826141868" to="-320147336#1" type="passenger"/>
    <trip id="177" depart="885.00" from="-28226019#4" to="-826077843#6" type="passenger"/>
    <trip id="178" depart="890.00" from="319659808#3" to="-326190890#0" type="passenger"/>
    <trip id="179" depart="895.00" from="28245885#3" to="155750883#4" type="passenger"/>
    <trip id="180" depart="900.00" from="-320002559#3" to="319575373#4" type="passenger"/>
    <trip id="181" depart="905.00" from="-1059854103#1" to="729085243#7" type="passenger"/>
    <trip id="182" depart="910.00" from="231431524#8" to="319659797#2" type="passenger"/>
    <trip id="183" depart="915.00" from="319686418#1" to="319513600#0" type="passenger"/>
    <trip id="184" depart="920.00" from="-360515290#9" to="-258147032#3" type="passenger"/>
    <trip id="185" depart="925.00" from="319392729#1" to="-360301502#1" type="passenger"/>
    <trip id="186" depart="930.00" from="-326154544#2" to="360339253#0" type="passenger"/>
    <trip id="187" depart="935.00" from="319657652#5" to="-326150397#0" type="passenger"/>
    <trip id="188" depart="940.00" from="-326151125#3" to="-730048999#2" type="passenger"/>
    <trip id="189" depart="945.00" from="-488366403#2" to="-326147103#0" type="passenger"/>
    <trip id="190" depart="950.00" from="-28413644#1" to="-824830792#0" type="passenger"/>
    <trip id="191" depart="955.00" from="824777586" to="319536933#21" type="passenger"/>
    <trip id="192" depart="960.00" from="426391243#3" to="28413675#0" type="passenger"/>
    <trip id="193" depart="965.00" from="-326147103#1" to="244399156#4" type="passenger"/>
    <trip id="194" depart="970.00" from="316169371#1" to="-86260528#3" type="passenger"/>
    <trip id="195" depart="975.00" from="-825723689#2" to="-319575373#4" type="passenger"/>
    <trip id="196" depart="980.00" from="-86260509#8" to="425778961#3" type="passenger"/>
    <trip id="197" depart="985.00" from="326137619#10" to="-319510014#1" type="passenger"/>
    <trip id="198" depart="990.00" from="-28121208#13" to="193442317#0" type="passenger"/>
    <trip id="199" depart="995.00" from="28496062#1" to="-360316347#1" type="passenger"/>
    <trip id="200" depart="1000.00" from="326190895#0" to="320144190" type="passenger"/>
    <trip id="201" depart="1005.00" from="319512092#2" to="-319659802#0" type="passenger"/>
    <trip id="202" depart="1010.00" from="-319540024#2" to="-1315006751#1" type="passenger"/>
    <trip id="203" depart="1015.00" from="-319686430#16" to="1059854113#3" type="passenger"/>
    <trip id="204" depart="1020.00" from="360337326" to="-258252905#2" type="passenger"/>
    <trip id="205" depart="1025.00" from="-727779328#0" to="295826412#0" type="passenger"/>
    <trip id="206" depart="1030.00" from="-319539944#10" to="319542670#0" type="passenger"/>
    <trip id="207" depart="1035.00" from="1189808582" to="-319803250" type="passenger"/>
    <trip id="208" depart="1040.00" from="316170714#1" to="-1125142415" type="passenger"/>
    <trip id="209" depart="1045.00" from="319889664#0" to="324871592#1" type="passenger"/>
    <trip id="210" depart="1050.00" from="-28213791#4" to="-824859225#1" type="passenger"/>
    <trip id="211" depart="1055.00" from="-319512802#0" to="826123060#3" type="passenger"/>
    <trip id="212" depart="1060.00" from="1434327073#3" to="-232290205#2" type="passenger"/>
    <trip id="213" depart="1065.00" from="-319803265#5" to="360339253#5" type="passenger"/>
    <trip id="214" depart="1070.00" from="-826406181" to="326151115#2" type="passenger"/>
    <trip id="215" depart="1075.00" from="319392757#1" to="86260491#12" type="passenger"/>
    <trip id="216" depart="1080.00" from="28195477#8" to="825701569#0" type="passenger"/>
    <trip id="217" depart="1085.00" from="360836367" to="28413623#3" type="passenger"/>
    <trip id="218" depart="1090.00" from="319657646#0" to="1315007820#2" type="passenger"/>
    <trip id="219" depart="1095.00" from="360279209" to="244399156#1" type="passenger"/>
    <trip id="220" depart="1100.00" from="369583189#1" to="319889650#4" type="passenger"/>
    <trip id="221" depart="1105.00" from="-86260519#8" to="-320145101#0" type="passenger"/>
    <trip id="222" depart="1110.00" from="-319689311#1" to="313176049#0" type="passenger"/>
    <trip id="223" depart="1115.00" from="320147263#4" to="22837906#1" type="passenger"/>
    <trip id="224" depart="1120.00" from="28451181#5" to="-324877283" type="passenger"/>
    <trip id="225" depart="1125.00" from="-258252908#2" to="-326130083#4" type="passenger"/>
    <trip id="226" depart="1130.00" from="-324867218#0" to="-358228407#1" type="passenger"/>
    <trip id="227" depart="1135.00" from="231442866#3" to="-28496211#5" type="passenger"/>
    <trip id="228" depart="1140.00" from="-319659816#0" to="319540046#5" type="passenger"/>
    <trip id="229" depart="1145.00" from="319558326#0" to="-257431310#5" type="passenger"/>
    <trip id="230" depart="1150.00" from="-50336407#18" to="233244539#2" type="passenger"/>
    <trip id="231" depart="1155.00" from="-728262145" to="-319558345#3" type="passenger"/>
    <trip id="232" depart="1160.00" from="-822237339" to="50335647#0" type="passenger"/>
    <trip id="233" depart="1165.00" from="28186496#1" to="319542658#11" type="passenger"/>
    <trip id="234" depart="1170.00" from="360503684#0" to="324871524" type="passenger"/>
    <trip id="235" depart="1175.00" from="-360695057#2" to="-1134587662#0" type="passenger"/>
    <trip id="236" depart="1180.00" from="-360339252#1" to="320144209#1" type="passenger"/>
    <trip id="237" depart="1185.00" from="360494740#10" to="825723701#0" type="passenger"/>
    <trip id="238" depart="1190.00" from="-762819009" to="320002574#10" type="passenger"/>
    <trip id="239" depart="1195.00" from="233244374#3" to="28245985#0" type="passenger"/>
    <trip id="240" depart="1200.00" from="-319657642#4" to="-319658020#3" type="passenger"/>
    <trip id="241" depart="1205.00" from="-824859231" to="-142759061#6" type="passenger"/>
    <trip id="242" depart="1210.00" from="-360301031" to="319536947#1" type="passenger"/>
    <trip id="243" depart="1215.00" from="-50335647#3" to="-319392747#12" type="passenger"/>
    <trip id="244" depart="1220.00" from="-85564961#1" to="-28424774#3" type="passenger"/>
    <trip id="245" depart="1225.00" from="28413668#9" to="-1387158585#13" type="passenger"/>
    <trip id="246" depart="1230.00" from="-360846795#0" to="267226850#4" type="passenger"/>
    <trip id="247" depart="1235.00" from="-1314998836" to="315927365#1" type="passenger"/>
    <trip id="248" depart="1240.00" from="-28485611#6" to="-86260491#9" type="passenger"/>
    <trip id="249" depart="1245.00" from="-231431524#6" to="-360828870" type="passenger"/>
    <trip id="250" depart="1250.00" from="-319559345#0" to="-360297368#2" type="passenger"/>
    <trip id="251" depart="1255.00" from="320145084#4" to="-360829788" type="passenger"/>
    <trip id="252" depart="1260.00" from="320002527#5" to="360312438" type="passenger"/>
    <trip id="253" depart="1265.00" from="-319889657#2" to="-28121214#25" type="passenger"/>
    <trip id="254" depart="1270.00" from="-1256471271" to="233244374#6" type="passenger"/>
    <trip id="255" depart="1275.00" from="99770070#2" to="-360503679#5" type="passenger"/>
    <trip id="256" depart="1280.00" from="315927370#0" to="324880724#2" type="passenger"/>
    <trip id="257" depart="1285.00" from="316003313#0" to="320145075#0" type="passenger"/>
    <trip id="258" depart="1290.00" from="825696980#4" to="-319540048#1" type="passenger"/>
    <trip id="259" depart="1295.00" from="-1256478472" to="-315993732#0" type="passenger"/>
    <trip id="260" depart="1300.00" from="-28275828#3" to="319512992#2" type="passenger"/>
    <trip id="261" depart="1305.00" from="258147028#2" to="-319657654#2" type="passenger"/>
    <trip id="262" depart="1310.00" from="319540037#6" to="324871546#3" type="passenger"/>
    <trip id="263" depart="1315.00" from="-319392737#0" to="28268602#2" type="passenger"/>
    <trip id="264" depart="1320.00" from="319885609" to="-28245990#1" type="passenger"/>
    <trip id="265" depart="1325.00" from="32727500#3" to="826353779#2" type="passenger"/>
    <trip id="266" depart="1330.00" from="-28213849" to="-1315258790" type="passenger"/>
    <trip id="267" depart="1335.00" from="-326154286#1" to="319536933#22" type="passenger"/>
    <trip id="268" depart="1340.00" from="826123071#0" to="-50335688#2" type="passenger"/>
    <trip id="269" depart="1345.00" from="319575364" to="-267226853#0" type="passenger"/>
    <trip id="270" depart="1350.00" from="319536969#7" to="28496132#0" type="passenger"/>
    <trip id="271" depart="1355.00" from="-28195298#1" to="324877289" type="passenger"/>
    <trip id="272" depart="1360.00" from="360337338#0" to="28245914#9" type="passenger"/>
    <trip id="273" depart="1365.00" from="-28268520#7" to="85572502#10" type="passenger"/>
    <trip id="274" depart="1370.00" from="324877355#2" to="-360494740#15" type="passenger"/>
    <trip id="275" depart="1375.00" from="-824766246#2" to="-360693969#0" type="passenger"/>
    <trip id="276" depart="1380.00" from="1256763685#0" to="-360337290#3" type="passenger"/>
    <trip id="277" depart="1385.00" from="360337322" to="358303104#21" type="passenger"/>
    <trip id="278" depart="1390.00" from="-28213612#2" to="826132335#2" type="passenger"/>
    <trip id="279" depart="1395.00" from="28496264" to="360299039#0" type="passenger"/>
    <trip id="280" depart="1400.00" from="319558337" to="-826088057" type="passenger"/>
    <trip id="281" depart="1405.00" from="319663197#0" to="826358218#2" type="passenger"/>
    <trip id="282" depart="1410.00" from="-320147333" to="326190261#1" type="passenger"/>
    <trip id="283" depart="1415.00" from="231431524#13" to="1189796658" type="passenger"/>
    <trip id="284" depart="1420.00" from="-824859225#0" to="319686335" type="passenger"/>
    <trip id="285" depart="1425.00" from="-320147282#3" to="360494768" type="passenger"/>
    <trip id="286" depart="1430.00" from="360289191#0" to="-28186482#8" type="passenger"/>
    <trip id="287" depart="1435.00" from="360696761#0" to="-319689331#1" type="passenger"/>
    <trip id="288" depart="1440.00" from="-8285857#25" to="28275806#6" type="passenger"/>
    <trip id="289" depart="1445.00" from="-360693972#0" to="-142759061#19" type="passenger"/>
    <trip id="290" depart="1450.00" from="360339250#0" to="-319536933#10" type="passenger"/>
    <trip id="291" depart="1455.00" from="-319559347#0" to="326150396#16" type="passenger"/>
    <trip id="292" depart="1460.00" from="-360315597#1" to="360696770#0" type="passenger"/>
    <trip id="293" depart="1465.00" from="319540047#4" to="-324877322" type="passenger"/>
    <trip id="294" depart="1470.00" from="-1189811420" to="824875163#0" type="passenger"/>
    <trip id="295" depart="1475.00" from="-28121214#0" to="319659802#12" type="passenger"/>
    <trip id="296" depart="1480.00" from="1081152634#2" to="320145124#0" type="passenger"/>
    <trip id="297" depart="1485.00" from="319536969#6" to="316003527#0" type="passenger"/>
    <trip id="298" depart="1490.00" from="1156398020#0" to="326137663#6" type="passenger"/>
    <trip id="299" depart="1495.00" from="-28186496#3" to="-319658467#0" type="passenger"/>
    <trip id="300" depart="1500.00" from="319539942#3" to="-326154279" type="passenger"/>
    <trip id="301" depart="1505.00" from="28186480#5" to="1020590501#1" type="passenger"/>
    <trip id="302" depart="1510.00" from="229548701#2" to="-824863630" type="passenger"/>
    <trip id="303" depart="1515.00" from="319542661" to="-324871580#0" type="passenger"/>
    <trip id="304" depart="1520.00" from="-319887855" to="-28275806#0" type="passenger"/>
    <trip id="305" depart="1525.00" from="-319536969#19" to="-28268651#1" type="passenger"/>
    <trip id="306" depart="1530.00" from="231429517#7" to="320147331#2" type="passenger"/>
    <trip id="307" depart="1535.00" from="-319536930#3" to="-319657641#4" type="passenger"/>
    <trip id="308" depart="1540.00" from="1042958048#0" to="319662528#1" type="passenger"/>
    <trip id="309" depart="1545.00" from="827286745#1" to="229549754#5" type="passenger"/>
    <trip id="310" depart="1550.00" from="-324877342#0" to="-28213567#0" type="passenger"/>
    <trip id="311" depart="1555.00" from="-319539942#7" to="-319659818#2" type="passenger"/>
    <trip id="312" depart="1560.00" from="-319513586" to="-1254815767#1" type="passenger"/>
    <trip id="313" depart="1565.00" from="230599327#1" to="-324877278#0" type="passenger"/>
    <trip id="314" depart="1570.00" from="826429742#2" to="257431328#2" type="passenger"/>
    <trip id="315" depart="1575.00" from="319540026#7" to="-28413689#0" type="passenger"/>
    <trip id="316" depart="1580.00" from="360688870#1" to="1254796526#0" type="passenger"/>
    <trip id="317" depart="1585.00" from="360691132#5" to="28131569#1" type="passenger"/>
    <trip id="318" depart="1590.00" from="-86258060#10" to="-826151289#2" type="passenger"/>
    <trip id="319" depart="1595.00" from="-319536915#1" to="-233244371#0" type="passenger"/>
    <trip id="320" depart="1600.00" from="824813916#2" to="1076324185" type="passenger"/>
    <trip id="321" depart="1605.00" from="332493281#1" to="-623813366#1" type="passenger"/>
    <trip id="322" depart="1610.00" from="-258147031#1" to="295826410#3" type="passenger"/>
    <trip id="323" depart="1615.00" from="-232197850#0" to="-315427804#7" type="passenger"/>