<?xml version="1.0" encoding="UTF-8"?>

<!-- generated on 2026-04-06T22:31:23.939111+05:30 by Eclipse SUMO polyconvert 1.25.0
<polyconvertConfiguration xmlns:xsi="http://www.w3.org/2001/XMLSchema-instance" xsi:noNamespaceSchemaLocation="http://sumo.dlr.de/xsd/polyconvertConfiguration.xsd">

    <input>
        <net-file value="D:\ResQFlow_ML\sumo\scenarios\mysore.net.xml"/>
        <osm-files value="D:\ResQFlow_ML\map.osm"/>
        <type-file value="C:\Program Files (x86)\Eclipse\Sumo\data\typemap\osmPolyconvert.typ.xml"/>
    </input>

    <output>
        <output-file value="D:\ResQFlow_ML\sumo\scenarios\mysore.poly.xml"/>
    </output>

</polyconvertConfiguration>
-->

<additional xmlns:xsi="http://www.w3.org/2001/XMLSchema-instance" xsi:noNamespaceSchemaLocation="http://sumo.dlr.de/xsd/additional_file.xsd">
    <location netOffset="-673812.77,-1359810.79" convBoundary="-971.35,-15355.70,16667.08,9858.13" origBoundary="76.589590,12.156726,76.751432,12.385015" projParameter="+proj=utm +zone=43 +ellps=WGS84 +datum=WGS84 +units=m +no_defs"/>

    <poly id="1005501929" type="building" color="255,230,230" fill="1" layer="-1.00" shape="6727.187708,700.140309 6726.797818,692.814382 6722.840736,683.585766 6715.309919,675.275415 6703.816101,669.263768 6691.435680,667.660675 6677.995845,670.265941 6669.494858,676.375393 6660.305015,688.343834 6657.456466,700.428858 6657.277485,729.423126 6657.386906,805.092765 6669.568034,805.488785 6669.651706,698.546040 6673.945800,688.428041 6682.666117,682.032313 6695.222999,679.720292 6705.053155,682.093093 6711.945170,688.153766 6716.206679,695.647413 6715.891939,699.052786 6718.514382,698.925165 6692.182745,814.467523 6659.587337,815.173419 6660.204783,822.644563 6691.423982,822.837314 6692.367752,816.216574 6699.984396,817.668570 6727.187708,700.140309"/>
    <poly id="1010635412" type="building" color="255,230,230" fill="1" layer="-1.00" shape="2576.825726,1777.682175 2657.101959,1775.976640 2656.856153,1764.448013 2667.332659,1764.223678 2666.701433,1735.468381 2660.696196,1735.598041 2660.380478,1721.236987 2586.675014,1722.805208 2578.852944,1722.979227 2574.512258,1723.063643 2574.666971,1729.868022 2571.642565,1729.938261 2572.466685,1768.197406 2576.622451,1768.111874 2576.825726,1777.682175"/>
    <poly id="1010635413" type="amenity" color="237,199,199" fill="1" layer="-1.00" shape="2602.167601,1713.329688 2609.179815,1713.969411 2612.986837,1715.795592 2613.169400,1717.987073 2627.829463,1716.681736 2642.076246,1717.166037 2645.912214,1712.399138 2645.747695,1707.220887 2644.775921,1702.424948 2643.385933,1698.434046 2630.328476,1700.943808 2628.727115,1701.332386 2627.942643,1697.942519 2613.498925,1697.645099 2610.058150,1701.817012 2601.832546,1702.165589 2602.167601,1713.329688"/>
    <poly id="1010635413#1" type="building" color="255,230,230" fill="1" layer="-1.00" shape="2602.167601,1713.329688 2609.179815,1713.969411 2612.986837,1715.795592 2613.169400,1717.987073 2627.829463,1716.681736 2642.076246,1717.166037 2645.912214,1712.399138 2645.747695,1707.220887 2644.775921,1702.424948 2643.385933,1698.434046 2630.328476,1700.943808 2628.727115,1701.332386 2627.942643,1697.942519 2613.498925,1697.645099 2610.058150,1701.817012 2601.832546,1702.165589 2602.167601,1713.329688"/>
    <poly id="1010635414" type="building" color="255,230,230" fill="1" layer="-1.00" shape="2733.311315,1711.057627 2740.515664,1710.503790 2740.081370,1704.969905 2745.283304,1704.569906 2744.586326,1695.704614 2732.180037,1696.658451 2733.311315,1711.057627"/>
    <poly id="1010635415" type="landuse" color="194,194,130" fill="1" layer="-3.00" shape="2918.826156,2044.232286 2920.295313,2018.952227 2921.374564,2004.179215 2919.820572,1987.753014 2919.561797,1976.589353 2915.356751,1961.452491 2912.064015,1959.131561 2913.480451,1944.360589 2918.883958,1925.022791 2952.230273,1931.131971 2968.718896,1936.818343 2990.137708,1947.457395 3012.845749,1964.343542 3023.711815,1971.633165 3026.964758,1980.525015 3010.653404,1999.464885 2995.656129,2018.755656 2985.031846,2027.231619 2976.411114,2031.770387 2950.582545,2039.833517 2918.826156,2044.232286"/>
    <poly id="1010638517" type="building" color="255,230,230" fill="1" layer="-1.00" shape="2642.703187,2369.559725 2644.146231,2362.964121 2638.684257,2361.415548 2640.480016,2350.452379 2658.366254,2353.425666 2656.451109,2364.343863 2650.027213,2363.574913 2648.701676,2370.525228 2642.703187,2369.559725"/>
    <poly id="1010638518" type="building" color="255,230,230" fill="1" layer="-1.00" shape="4303.902372,1374.752546 4311.695886,1373.937170 4311.161008,1368.889365 4314.138172,1367.657439 4313.829314,1364.790344 4311.108130,1365.072446 4310.490817,1359.271882 4302.349018,1360.118323 4303.902372,1374.752546"/>
    <poly id="1010810189" type="man_made" color="255,230,230" fill="1" layer="-1.00" shape="3550.921423,6589.076924 3546.390736,6609.747438 3486.135846,6685.159110 3468.548755,6678.159978 3420.184676,6745.900365 3456.250701,6800.946254 3458.219344,6809.852573 3444.459384,6838.763819 3444.974369,6888.128259 3653.413043,6930.153354 3701.583957,6788.945351 3742.837136,6751.307579 3773.600473,6634.386483 3781.572465,6591.611759 3564.070057,6560.571294 3550.921423,6589.076924"/>
    <poly id="1010810190" type="man_made" color="255,230,230" fill="1" layer="-1.00" shape="3775.115230,6954.691534 3882.007244,6528.139022 3976.380803,6561.438543 3892.008556,6892.237631 3842.725093,6966.144737 3826.852767,6965.118573 3775.115230,6954.691534"/>
    <poly id="1010810196" type="water" color="181,209,209" fill="0" layer="-4.00" shape="3393.555432,3928.718178 3469.577716,3969.226721 3503.698922,3988.815796 3569.799118,4045.769684 3577.811770,4058.872270 3568.164290,4124.989944 3563.181538,4232.465800 3564.170296,4259.453453 3570.639346,4288.487837 3670.145803,4316.075042 3673.571646,4323.275516 3669.396361,4344.490268 3654.826530,4411.573609 3682.760436,4420.084858"/>
    <poly id="1010810197" type="water" color="181,209,209" fill="0" layer="-4.00" shape="5926.919197,3459.498116 5929.458690,3516.929160 5940.047719,3579.576086 5941.581303,3621.955671 5940.878653,3718.329576 5937.447148,3788.014500 5937.087425,3802.261041 5961.546454,3790.464068 5985.862677,3778.898549 6011.303714,3770.138847 6026.702308,3770.676294 6034.300782,3771.420094 6040.125205,3772.341024 6080.174396,3782.942693 6105.410489,3789.780225 6116.352481,3791.595630 6125.535664,3792.880241 6169.850454,3799.658534 6276.651833,3819.102261 6318.672702,3825.689622 6368.098519,3836.172618 6386.384164,3869.407380 6431.305070,3940.010706 6445.257870,3954.478487"/>
    <poly id="1010810198" type="water" color="181,209,209" fill="0" layer="-4.00" shape="6995.949027,5376.786120 6995.503249,5385.522939 6995.230607,5390.897751 7004.768408,5436.601927 7008.024117,5471.060531 7022.588320,5498.995928 7024.690831,5531.743714 7042.190792,5552.805248 7054.865482,5557.474995 7077.152808,5597.516811 7080.701811,5630.262534 7057.619741,5719.959964 7040.984138,5747.137455 7027.677721,5749.632456 6997.751833,5776.716382 7010.403210,5785.125195 7011.484995,5798.329797 6986.165363,5828.031016 6982.505300,5858.718542 6973.529431,5862.689667 6997.705659,5922.545534 6994.992305,5940.892887 7001.160485,5954.693273 7007.568708,5959.611747 7017.197804,6011.578068 7010.157382,6036.657903 7051.030872,6288.700526 7054.009434,6301.197843 7077.831083,6314.742874 7177.812328,6299.533445 7191.878897,6304.189830 7219.486287,6300.102318 7236.880855,6311.771101 7245.200514,6353.839307"/>
    <poly id="1010810211" type="water" color="181,209,209" fill="0" layer="-4.00" shape="7245.200514,6353.839307 7229.183924,6416.155937 7209.663665,6450.749564 7207.893539,6488.794540 7214.256711,6511.424323 7218.682950,6527.216322 7247.581180,6562.111098 7276.859246,6633.836306 7295.749088,6698.803930 7308.173481,6722.633065 7339.811620,6759.359328 7376.721617,6786.073440 7371.288511,6821.971579 7374.251700,6836.902679 7360.407901,6847.171265"/>
    <poly id="1010810212" type="water" color="181,209,209" fill="0" layer="-4.00" shape="7245.200514,6353.839307 7299.523492,6338.656127 7305.340592,6289.971791 7403.029955,6251.616546 7443.306939,6130.685408 7477.325766,6080.362347 7580.856436,5963.475926 7649.936088,5838.885565"/>
    <poly id="1010810213" type="man_made" color="255,230,230" fill="0" layer="-1.00" shape="3238.735360,6518.422256 3252.351948,6522.000862"/>
    <poly id="1010810277" type="man_made" color="255,230,230" fill="1" layer="-1.00" shape="4205.858395,5185.013084 4297.548184,5138.513020 4380.035459,5129.580934 4417.177090,5119.154782 4487.957527,5169.513488 4374.200257,5231.841392 4361.692392,5244.287797 4232.565206,5274.938396 4205.858395,5185.013084"/>
    <poly id="1010810278" type="man_made" color="255,230,230" fill="1" layer="-1.00" shape="4326.263052,4996.013859 4548.318253,5145.224299 4692.017696,5022.788974 4692.895980,4978.842464 4419.813392,4912.189075 4374.572455,4920.187269 4326.263052,4996.013859"/>
    <poly id="1010810279" type="amenity" color="237,199,199" fill="1" layer="-1.00" shape="4472.023001,2822.855946 4414.650490,2875.418057 4424.886474,2905.626190 4280.040027,2913.492530 4206.734298,2923.023792 4441.314693,2694.873064 4464.012606,2788.004027 4472.023001,2822.855946"/>
    <poly id="1010810280" type="water" color="181,209,209" fill="0" layer="-4.00" shape="3579.049663,2192.911166 3595.988402,2242.640746 3608.567865,2290.142407 3616.337441,2321.861753 3629.615151,2406.593230 3662.647452,2619.936602"/>
    <poly id="1010810281" type="water" color="181,209,209" fill="1" layer="-4.00" shape="3277.277328,1998.801406 3306.278046,2057.807912 3320.000091,2069.462563 3369.381303,2062.759509 3397.770429,2080.897345 3427.606391,2113.347882 3459.811946,2158.612226 3486.115423,2167.301143 3527.530802,2161.158452 3538.584252,2157.265179 3546.051280,2188.672899 3608.673070,2170.777929 3663.528994,2120.566367 3691.391039,2075.058340 3701.024756,2021.994422 3529.086747,2021.359220 3277.277328,1998.801406"/>
    <poly id="1010810282" type="building" color="255,230,230" fill="1" layer="-1.00" shape="3044.556138,1243.402038 3078.025527,1238.294593 3075.963289,1224.962819 3042.493818,1230.081331 3044.556138,1243.402038"/>
    <poly id="1010810282#1" type="tourism" color="207,245,201" fill="1" layer="-2.00" shape="3044.556138,1243.402038 3078.025527,1238.294593 3075.963289,1224.962819 3042.493818,1230.081331 3044.556138,1243.402038"/>
    <poly id="1010810283" type="building" color="255,230,230" fill="1" layer="-1.00" shape="5005.293284,2341.939341 5013.127095,2330.957864 4999.588537,2321.427458 4991.754730,2332.408939 5005.293284,2341.939341"/>
    <poly id="1070561579" type="building" color="255,230,230" fill="1" layer="-1.00" shape="8948.082454,1769.212272 8937.388071,1753.779082 8938.357098,1737.987409 8971.909812,1738.916411 8977.073887,1753.297229 8965.731285,1770.185595 8968.067185,1770.642724 8971.747427,1764.868822 8977.890582,1761.853916 8984.734291,1763.357035 8989.088031,1768.163427 8989.594692,1779.329006 8983.012008,1783.049181 8977.181654,1783.012698 8971.485431,1782.401788 8968.892050,1777.894047 8964.958054,1777.283101 8974.005309,1800.394674 8963.294546,1810.184647 8936.177850,1806.386379 8936.271209,1791.463192 8949.777537,1778.205904 8949.650594,1775.892976 8944.831850,1775.862829 8942.324576,1780.194839 8936.345606,1779.571104 8936.081821,1776.527173 8929.373087,1776.053754 8930.285019,1769.388566 8937.431554,1769.433273 8938.006276,1771.461368 8942.528559,1771.932173 8942.543093,1769.609068 8945.749265,1770.060577 8945.292351,1771.805647 8950.106597,1772.554851 8949.688729,1769.797589 8948.082454,1769.212272"/>
    <poly id="1075468272" type="amenity" color="237,199,199" fill="1" layer="-1.00" shape="3901.897154,895.917184 3991.574043,887.214205 3987.495341,844.200219 3897.035136,852.898466 3901.897154,895.917184"/>
    <poly id="1075468272#1" type="building" color="255,230,230" fill="1" layer="-1.00" shape="3901.897154,895.917184 3991.574043,887.214205 3987.495341,844.200219 3897.035136,852.898466 3901.897154,895.917184"/>
    <poly id="1076054312" type="tourism" color="207,245,201" fill="1" layer="-2.00" shape="7605.704412,985.920094 7396.177573,991.578857 7402.340706,843.199162 7616.297601,849.559828 7605.704412,985.920094"/>
    <poly id="1076054313" type="tourism" color="207,245,201" fill="1" layer="-2.00" shape="7104.622230,820.944361 7098.370627,976.834961 7195.904978,978.456563 7195.682360,995.082488 7396.177573,991.578857 7402.340706,843.199162 7403.076136,821.078215 7104.622230,820.944361"/>
    <poly id="1076054314" type="landuse" color="194,194,130" fill="1" layer="-3.00" shape="7616.297601,849.559828 7605.704412,985.920094 7811.865840,959.952779 7843.421913,951.453529 7919.352273,848.134500 7947.189020,745.014380 7621.255700,707.965096 7616.297601,849.559828"/>
    <poly id="1076054315" type="natural" color="140,196,107" fill="1" layer="-4.00" shape="6851.583947,1062.139911 6797.045114,917.135618 6877.902431,910.101605 6874.439052,951.244601 6879.406259,997.661321 6892.609512,1050.899353 6851.583947,1062.139911"/>
    <poly id="1076054316" type="residential" color="235,235,227" fill="1" layer="-3.00" shape="6872.780124,1126.335193 6960.134146,1060.775543 7079.854847,1045.574848 7089.895898,836.318933 7043.881057,822.261111 7031.201396,679.119403 7160.536296,666.290405 7336.413134,419.208987 7051.027659,328.155172 6879.119677,572.353064 6846.429520,762.629026 6840.614877,892.049089 6886.481844,891.303752 6884.658645,950.433820 6903.310014,1047.956450 6892.609512,1050.899353 6851.583947,1062.139911 6872.780124,1126.335193"/>
    <poly id="1076054317" type="residential" color="235,235,227" fill="1" layer="-3.00" shape="6944.696745,1171.805206 6973.176569,1168.120472 7018.448851,1161.453158 7012.905345,1113.284897 7071.880049,1107.277695 7076.920891,1057.371694 6981.950001,1070.479745 6929.795793,1106.398685 6944.696745,1171.805206"/>
    <poly id="1076054318" type="forest" color="140,196,107" fill="1" layer="-4.00" shape="6958.771737,1233.555935 6790.275413,1255.701625 6796.188481,1196.596842 6814.380070,1180.192623 6929.795793,1106.398685 6944.696745,1171.805206 6958.771737,1233.555935"/>
    <poly id="1076054320" type="tourism" color="207,245,201" fill="1" layer="-2.00" shape="7261.716587,1031.334792 7366.510299,1023.576496 7378.135402,1031.182293 7424.562490,1119.031850 7396.514701,1124.942452 7401.807096,1166.139779 7296.082454,1182.012170 7261.716587,1031.334792"/>
    <poly id="1076054321" type="amenity" color="237,199,199" fill="1" layer="-1.00" shape="7286.303338,1292.556946 7336.738174,1283.101132 7319.409309,1191.858769 7268.985206,1201.314699 7286.303338,1292.556946"/>
    <poly id="1076054322" type="amenity" color="237,199,199" fill="1" layer="-1.00" shape="7286.303338,1292.556946 7112.215969,1332.200567 7086.796641,1243.917409 7089.475604,1234.652353 7268.985206,1201.314699 7286.303338,1292.556946"/>
    <poly id="1076054323" type="tourism" color="207,245,201" fill="1" layer="-2.00" shape="7081.111474,1218.659172 7204.961205,1197.101420 7179.348838,1092.576864 7090.987123,1085.358979 7081.111474,1218.659172"/>
    <poly id="1076054325" type="leisure" color="207,245,201" fill="1" layer="-2.00" shape="6728.390709,899.907235 6837.593741,893.324757 6834.743285,764.879983 6846.264921,694.205064 6758.780944,676.782895 6738.645573,743.676485 6730.156572,774.267787 6726.394795,800.352569 6725.983687,822.884787 6726.790574,848.997785 6728.390709,899.907235"/>
    <poly id="1105140474" type="building" color="255,230,230" fill="1" layer="-1.00" shape="6805.683526,864.132175 6806.069530,866.800677 6814.834193,865.549431 6814.709060,864.674703 6814.448189,862.880930 6805.683526,864.132175"/>
    <poly id="1105140475" type="building" color="255,230,230" fill="1" layer="-1.00" shape="6771.377076,867.117352 6771.354103,869.075311 6771.334751,870.446969 6787.519965,870.690774 6787.538019,869.529300 6787.573170,867.361224 6771.377076,867.117352"/>
    <poly id="1105140476" type="building" color="255,230,230" fill="1" layer="-1.00" shape="6746.936656,856.091726 6746.051539,858.497932 6745.763661,859.314795 6754.349178,862.410074 6755.533051,859.187073 6746.936656,856.091726"/>
    <poly id="1105140479" type="leisure" color="207,245,201" fill="1" layer="-2.00" shape="6770.958141,746.508988 6766.041731,739.376354 6750.512767,750.874168 6749.468838,801.888980 6764.847378,814.739286 6770.876692,807.242818 6758.680092,797.022965 6759.959590,755.423980 6770.958141,746.508988"/>
    <poly id="1105140480" type="leisure" color="207,245,201" fill="1" layer="-2.00" shape="6798.671231,747.255447 6809.549783,757.765865 6808.565760,799.067989 6796.695145,808.276272 6802.770126,816.278964 6819.480172,803.770707 6820.519712,753.485993 6806.018557,739.479495 6798.671231,747.255447"/>
    <poly id="1105140482" type="building" color="255,230,230" fill="1" layer="-1.00" shape="6618.326593,838.050857 6618.293230,839.931312 6651.697060,840.425137 6651.732200,838.257062 6654.408130,838.273581 6654.399662,839.645306 6661.916196,839.691710 6661.956490,833.164957 6654.439954,833.118553 6654.431418,834.501340 6651.788121,834.485021 6651.824218,832.162074 6618.420378,831.668250 6618.382509,834.278817 6613.846482,834.250820 6613.855016,832.868033 6606.338482,832.821642 6606.298201,839.348394 6613.814733,839.394785 6613.823199,838.023061 6618.326593,838.050857"/>
    <poly id="1106278174" type="amenity" color="237,199,199" fill="1" layer="-1.00" shape="5326.170672,988.255569 5341.985787,986.737354 5341.156140,973.014585 5324.623026,974.539465 5326.170672,988.255569"/>
    <poly id="1106278174#1" type="building" color="255,230,230" fill="1" layer="-1.00" shape="5326.170672,988.255569 5341.985787,986.737354 5341.156140,973.014585 5324.623026,974.539465 5326.170672,988.255569"/>
    <poly id="1131201826" type="amenity" color="237,199,199" fill="1" layer="-1.00" shape="5766.796305,5301.302718 5784.275831,5304.662899 5792.209102,5266.910546 5772.626175,5264.234348 5766.796305,5301.302718"/>
    <poly id="1131201826#1" type="building" color="255,230,230" fill="1" layer="-1.00" shape="5766.796305,5301.302718 5784.275831,5304.662899 5792.209102,5266.910546 5772.626175,5264.234348 5766.796305,5301.302718"/>
    <poly id="1131468012" type="building" color="255,230,230" fill="1" layer="-1.00" shape="5790.382355,5407.970888 5822.925121,5353.212014 5775.717803,5325.551842 5741.051696,5384.247058 5790.382355,5407.970888"/>
    <poly id="1134097104" type="farm" color="242,242,204" fill="1" layer="-3.00" shape="5519.543890,5426.392229 5502.648857,5469.443783 5744.200753,5563.294186 5750.942537,5515.909934 5519.543890,5426.392229"/>
    <poly id="1175606356" type="residential" color="235,235,227" fill="1" layer="-3.00" shape="5173.894431,6385.071015 5169.245438,6368.182906 5170.442335,6283.184633 5281.961657,6255.538927 5311.214183,6245.607598 5303.491613,6176.750179 5360.615185,6162.255534 5376.807334,6178.550961 5413.494278,6174.727831 5543.677678,6201.836601 5589.176531,6199.417629 5634.765101,6404.767913 5752.564979,6457.444814 5813.285528,6409.917897 5877.082991,6413.685766 5918.659874,6387.635297 5947.625189,6424.243685 5961.540877,6588.931861 5976.443945,6593.736634 6036.265225,6582.645232 6044.173426,6621.148137 6127.053535,6611.538017 6147.068987,6668.999908 5907.579669,6751.840118 5738.037939,6832.414308 5556.025344,6951.366448 5384.988077,6944.925092 5359.860149,7065.796235 5244.329055,7045.968685 5251.952221,6940.057163 5240.625099,6905.582501 5236.304207,6835.396351 5220.669991,6726.697774 5206.862329,6543.801982 5173.894431,6385.071015"/>
    <poly id="1175606357" type="residential" color="235,235,227" fill="1" layer="-3.00" shape="7694.252609,6640.385713 7704.795547,6521.150092 7537.460364,6504.685508 7515.580302,6347.114468 7629.157054,6338.894448 7600.371739,6240.521597 7884.062081,6196.025996 7938.794280,6195.560029 8079.743227,6252.440299 8085.174208,6297.101688 8064.891516,6406.541232 8003.593669,6413.459778 7989.112329,6508.321574 8183.250493,6548.487018 8164.771385,6630.336037 8239.850553,6640.540859 8264.241756,6658.548864 8260.466302,6740.489846 8367.424582,6745.219261 8373.899902,6754.995103 8276.982460,6842.039459 8100.452713,6859.598407 8059.351118,6901.546208 8016.805984,6913.449445 7836.441060,6890.418579 7839.035737,6868.519325 7731.297099,6856.485472 7619.605842,6822.511959 7604.993831,6809.444188 7561.337714,6736.124355 7560.876055,6679.313968 7611.512987,6679.629576 7616.660704,6640.709516 7694.252609,6640.385713"/>
    <poly id="1181339645" type="building" color="255,230,230" fill="1" layer="-1.00" shape="4017.423198,6394.632614 4003.199388,6422.799659 4015.115736,6428.746705 4029.350364,6400.590793 4017.423198,6394.632614"/>
    <poly id="1190084122" type="building" color="255,230,230" fill="1" layer="-1.00" shape="2787.472449,3855.679707 2783.217664,3836.239188 2830.556685,3823.184430 2837.731917,3843.516588 2787.472449,3855.679707"/>
    <poly id="1190084122#1" type="shop" color="237,199,255" fill="1" layer="-1.00" shape="2787.472449,3855.679707 2783.217664,3836.239188 2830.556685,3823.184430 2837.731917,3843.516588 2787.472449,3855.679707"/>
    <poly id="1190084123" type="building" color="255,230,230" fill="1" layer="-1.00" shape="2808.845717,3726.311035 2817.202329,3723.994254 2813.339111,3706.348235 2804.847154,3709.460701 2808.845717,3726.311035"/>
    <poly id="1190084124" type="building" color="255,230,230" fill="1" layer="-1.00" shape="2819.203045,3722.302738 2841.075760,3717.036677 2838.891987,3705.850285 2817.016116,3711.636269 2819.203045,3722.302738"/>
    <poly id="1190084311" type="building" color="255,230,230" fill="1" layer="-1.00" shape="2826.670631,3706.937840 2835.057670,3704.986311 2833.548955,3697.277646 2824.700411,3700.000759 2826.670631,3706.937840"/>
    <poly id="1190084312" type="building" color="255,230,230" fill="1" layer="-1.00" shape="2816.969773,3695.938244 2826.746194,3694.459752 2823.171921,3670.410271 2813.396430,3671.733895 2816.969773,3695.938244"/>
    <poly id="1190084313" type="building" color="255,230,230" fill="1" layer="-1.00" shape="2799.061759,3684.125645 2808.525576,3682.180627 2804.011911,3660.581346 2794.227042,3663.453676 2799.061759,3684.125645"/>
    <poly id="1190084314" type="building" color="255,230,230" fill="1" layer="-1.00" shape="2811.884371,3741.816991 2828.192613,3737.601357 2825.920979,3728.350379 2809.610857,3732.875755 2811.884371,3741.816991"/>
    <poly id="1190084315" type="building" color="255,230,230" fill="1" layer="-1.00" shape="2791.034942,3651.730184 2800.517147,3648.546270 2792.764682,3622.933807 2782.659762,3626.567520 2791.034942,3651.730184"/>
    <poly id="1190084316" type="building" color="255,230,230" fill="1" layer="-1.00" shape="2802.791339,3698.695465 2807.169256,3697.803783 2804.199520,3685.285132 2799.687868,3686.707007 2802.791339,3698.695465"/>
    <poly id="1190084317" type="man_made" color="255,230,230" fill="1" layer="-1.00" shape="2900.259491,3431.129739 2899.643566,3432.254387 2899.429205,3433.525281 2899.639099,3434.787682 2900.241288,3435.930772 2901.182328,3436.799350 2902.375539,3437.337579 2903.680063,3437.456106 2904.954570,3437.143012 2906.057396,3436.441690 2906.857621,3435.417720 2907.289313,3434.181330 2907.275467,3432.875866 2906.847840,3431.645334 2906.038191,3430.633738 2904.932997,3429.930104 2903.673119,3429.623784 2902.388941,3429.737694 2901.211050,3430.261561 2900.259491,3431.129739"/>
    <poly id="1192131905" type="college" color="237,199,199" fill="1" layer="-2.00" shape="6302.460412,4136.540439 6431.075976,4096.746007 6424.855056,4253.245157 6437.535828,4749.586600 6176.557871,4776.382868 6302.460412,4136.540439"/>
    <poly id="1192131906" type="tourism" color="207,245,201" fill="1" layer="-2.00" shape="3978.497307,4894.492495 3607.782028,4787.304600 3615.344339,4742.126774 3971.210198,4846.325698 3978.497307,4894.492495"/>
    <poly id="1192131907" type="tourism" color="207,245,201" fill="1" layer="-2.00" shape="3513.436353,3916.824438 3463.790726,3967.521094 3416.180768,3942.794503 3445.523257,3852.060604 3483.037592,3887.854803 3513.436353,3916.824438"/>
    <poly id="1192131908" type="tourism" color="207,245,201" fill="1" layer="-2.00" shape="2819.449714,4076.681687 2907.810431,4082.427494 2915.802637,4016.388271 2835.184558,4032.427263 2819.449714,4076.681687"/>
    <poly id="1192131920" type="tourism" color="207,245,201" fill="1" layer="-2.00" shape="9591.331145,1158.922398 9472.124686,1183.685540 9454.835803,1102.696531 9494.275252,1094.823718 9596.638870,1103.586042 9591.331145,1158.922398"/>
    <poly id="1192131923" type="tourism" color="207,245,201" fill="1" layer="-2.00" shape="9718.651590,817.336732 9628.464438,821.704707 9628.795551,768.936899 9719.671073,793.569017 9718.651590,817.336732"/>
    <poly id="1192131927" type="residential" color="235,235,227" fill="1" layer="-3.00" shape="8040.489790,2339.289302 8058.564224,2341.725061 8060.203565,2359.701257 8153.502756,2417.101098 8162.854623,2555.444447 7982.532643,2557.794755 7979.586621,2421.239386 8023.021343,2426.443860 8041.481526,2414.091056 8040.489790,2339.289302"/>
    <poly id="1192131928" type="school" color="237,199,199" fill="1" layer="-2.00" shape="8058.386916,2885.272547 7901.970450,2797.621327 7907.420773,2766.059918 7882.961615,2758.362836 7900.194404,2567.437799 7840.988060,2563.872202 7852.215409,2401.020368 7835.469180,2324.970148 7863.843962,2313.552874 7878.659457,2276.828094 7960.522521,2296.465136 8013.929865,2293.323925 8045.435995,2294.383022 8040.489790,2339.289302 8041.481526,2414.091056 8023.021343,2426.443860 7979.586621,2421.239386 7982.532643,2557.794755 8162.854623,2555.444447 8166.063478,2647.938446 8170.075573,2660.431240 8119.019216,2707.074611 8058.386916,2885.272547"/>
    <poly id="1192131929" type="tourism" color="207,245,201" fill="1" layer="-2.00" shape="8435.199586,2534.243236 8634.439054,2444.750305 8617.287139,2388.687346 8371.540204,2496.442541 8435.199586,2534.243236"/>
    <poly id="1192131930" type="residential" color="235,235,227" fill="1" layer="-3.00" shape="8972.380493,1919.243689 8692.282070,1919.815424 8690.022621,1814.848257 8799.138434,1814.954912 8797.981384,1674.637771 8925.528615,1677.658937 8921.673565,1817.458049 8974.190186,1817.786619 8972.380493,1919.243689"/>
    <poly id="1192131933" type="residential" color="235,235,227" fill="1" layer="-3.00" shape="8474.721891,1390.240634 8673.739302,1386.272248 8673.572447,1599.352266 8633.597350,1599.102606 8633.880636,1647.802923 8536.720510,1647.483958 8536.148137,1692.129921 8477.978296,1663.357584 8474.721891,1390.240634"/>
    <poly id="1192131934" type="commercial" color="209,209,204" fill="1" layer="-3.00" shape="8477.978296,1663.357584 8474.721891,1390.240634 8264.957395,1387.195957 8319.842418,1569.598596 8477.978296,1663.357584"/>
    <poly id="1192131935" type="residential" color="235,235,227" fill="1" layer="-3.00" shape="8047.282122,1529.634576 8173.644958,1525.498426 8171.053619,1426.326428 8131.388328,1423.468597 8131.341914,1383.752873 8044.433093,1377.414961 8047.282122,1529.634576"/>
    <poly id="1192131936" type="residential" color="235,235,227" fill="1" layer="-3.00" shape="7946.301963,1522.600864 7946.674928,1534.340801 8014.936696,1532.210026 8009.974895,1375.109664 7941.712833,1377.229436 7946.301963,1522.600864"/>
    <poly id="1192131937" type="building" color="255,230,230" fill="1" layer="-1.00" shape="7900.966211,1434.546746 7922.311300,1434.159545 7922.903287,1466.654626 7933.641052,1466.466970 7932.372196,1397.637491 7900.300098,1398.223485 7900.966211,1434.546746"/>
    <poly id="1192131938" type="residential" color="235,235,227" fill="1" layer="-3.00" shape="7842.375144,979.856235 7825.022772,1002.880665 7857.980530,1145.142631 8121.080600,1111.699139 8092.562849,992.076683 8068.473388,984.160698 7941.304734,977.572774 7842.375144,979.856235"/>
    <poly id="1192131939" type="commercial" color="209,209,204" fill="1" layer="-3.00" shape="8673.739302,1386.272248 8673.572447,1599.352266 8799.620039,1598.690609 8797.981384,1674.637771 8925.528615,1677.658937 8997.519384,1679.359434 8989.383578,1487.965618 8982.500058,1374.572694 8673.739302,1386.272248"/>
    <poly id="1192131941" type="forest" color="140,196,107" fill="1" layer="-4.00" shape="8561.207974,1230.756638 8468.551327,1209.303037 8467.118227,1158.272413 8418.108619,1157.092823 8417.930593,1138.539383 8367.271113,1138.522254 8367.218397,1129.527864 8346.037204,1110.555886 8256.863565,1046.798469 8191.645397,1024.642828 8092.562849,992.076683 8068.473388,984.160698 7941.304734,977.572774 7842.375144,979.856235 7898.351635,917.290139 7929.562841,871.540446 7948.470734,832.805517 7968.494061,780.890694 7982.671647,706.902463 7990.577115,654.912293 7966.875087,337.893714 7957.687644,312.613473 8018.824876,288.058028 8015.113177,274.405605 8108.164098,280.205913 8127.988786,375.712589 8226.778316,536.074121 8305.407545,563.966304 8290.726530,620.837210 8346.055676,637.997329 8362.132945,678.299722 8398.683851,713.253637 8506.461467,839.610144 8585.621875,871.124089 8575.333642,1163.582865 8561.207974,1230.756638"/>
    <poly id="1192131942" type="residential" color="235,235,227" fill="1" layer="-3.00" shape="8536.659551,1284.235983 8395.408817,1264.802605 8395.447704,1211.457988 8439.070012,1211.298544 8554.604357,1236.080894 8536.659551,1284.235983"/>
    <poly id="1192131943" type="tourism" color="207,245,201" fill="1" layer="-2.00" shape="8191.645397,1024.642828 8256.863565,1046.798469 8346.037204,1110.555886 8367.218397,1129.527864 8367.271113,1138.522254 8367.631475,1204.613702 8348.954447,1204.497280 8348.763764,1187.968261 8189.912947,1189.301760 8191.645397,1024.642828"/>
    <poly id="1193326934" type="building" color="255,230,230" fill="1" layer="-1.00" shape="8515.043547,2572.233669 8524.042552,2573.462531 8525.891261,2561.349221 8516.782030,2560.351990 8515.043547,2572.233669"/>