<?xml version="1.0" encoding="UTF-8"?>

<!-- generated on 2026-04-07 00:16:57.525940 by Eclipse SUMO randomTrips.py v1_25_0+0000-ac6c5a6752d
<configuration>
    <net-file value="D:\ResQFlow_ML\sumo\scenarios\mysore.net.xml"/>
    <output-trip-file value="D:\ResQFlow_ML\sumo\scenarios\mysore.trips.xml"/>
    <route-file value="D:\ResQFlow_ML\sumo\scenarios\mysore.rou.xml"/>
    <vehicle-class value="passenger"/>
    <period value="5.0"/>
</configuration>
-->

<!-- generated on 2026-04-07T00:16:52.311381+05:30 by Eclipse SUMO duarouter 1.25.0
<duarouterConfiguration xmlns:xsi="http://www.w3.org/2001/XMLSchema-instance" xsi:noNamespaceSchemaLocation="http://sumo.dlr.de/xsd/duarouterConfiguration.xsd">

    <input>
        <net-file value="D:\ResQFlow_ML\sumo\scenarios\mysore.net.xml"/>
        <route-files value="D:\ResQFlow_ML\sumo\scenarios\mysore.trips.xml"/>
    </input>

    <output>
        <output-file value="D:\ResQFlow_ML\sumo\scenarios\mysore.rou.xml"/>
        <alternatives-output value="NUL"/>
    </output>

    <time>
        <begin value="0"/>
        <end value="3600.0"/>
    </time>

    <report>
        <no-warnings value="true"/>
        <ignore-errors value="true"/>
        <no-step-log value="true"/>
    </report>

</duarouterConfiguration>
-->

<routes xmlns:xsi="http://www.w3.org/2001/XMLSchema-instance" xsi:noNamespaceSchemaLocation="http://sumo.dlr.de/xsd/routes_file.xsd">
    <vType id="passenger" vClass="passenger"/>
    <vehicle id="0" type="passenger" depart="0.00">
        <route edges="31136038#4 315993722#0 315993722#2 -315993723#1 -315993723#0 -315993721#0 826361125 50218330#0 50218330#1 50218330#2 50218330#3 229486918#6 229486918#7 229486918#8 229486918#9 229486918#10 358302717#0 358302717#1 358302717#2 358302717#3 358302717#5 358302717#6 358302717#7 358302717#8 316747151#2 316747149#0 316747149#1 316747149#2 316747149#3 316747149#4 316747149#5 316747149#6 316747149#7 316747149#8 316747149#9 316747149#10 747783068#0 747783068#1 1387160567 8285868#6 8285868#0 8285868#1 8285868#2 85564968#0 85564968#1 85564968#2 728048247-AddedOnRampEdge 728048247 729016165#1 728065452 28186538#5 -1063939368 -1059854113#5 -1059854113#4 -826429744#4 -826429744#3 -826429744#2 -1315251841"/>
    </vehicle>
    <vehicle id="1" type="passenger" depart="5.00">
        <route edges="-324871564 -86260485#26 -324871533 -324871591#1 -324877331 -324877272#5 -324877272#4 -324877272#2 -324877272#1 -324877272#0 728955241#19 728955241#20 728955241#21 728955241#22 728955241#23 728955241#24 728955241#25 728955241#26 728955241#28 728955241#29 728955242#0 728955242#1 728955242#2 728955242#3 728955242#4 728955242#5 728955244#1 28195135#1 28195135#3 28195135#4 28195135#5 28195135#6 28195135#7 28195135#8 28195135#9 28195135#10 28195135#12 28195135#13 28195135#14 28195135#15 28195135#16 28195135#18 358303102#0 358303102#1 358303102#3 358303102#4 358303102#5 358303102#7 358303102#8 358303102#9 358303102#10 843963074#1 843963073#0 425778960#2 425778960#3 -826952962 1254835657#1 1254835657#2 319542663#0 623813383#0 623813383#1 623813383#3 623813383#5 623813383#6 623813383#7 623813383#8 632625107#2 632625107#3 632625107#4 632625107#5 319542684#0 319542684#1 319542684#2 319542684#3 319542684#4 319542684#5 319542684#6 319542684#7 319542684#8 632625105#4 632625105#5 632625105#6 632625105#7 -319659803#3 -319659803#2 -319659803#0 -360339276#4 -360339276#3 -360339276#2 -360339276#1 -360339276#0 -319659792#1 -319659792#0 -319659786#1"/>
    </vehicle>
    <vehicle id="2" type="passenger" depart="10.00">
        <route edges="319663654#12 319663654#13 -28495961#6 -28495961#5 28496002#0 -319663654#9 -319663654#8 -319663654#7 -319663654#6 28495993#1 28495993#2 28495993#3 28495993#4 28495993#5 -826353779#2 -826353779#0 319663653#0 319663653#1 319663653#2 319663653#3 319663653#4 319663653#5 319663653#6 319663653#8 319663653#9 319663653#10 728955244#12 728955244#13 728955246#1 -360337334#0 -826409600#1 -1199358406#0 -319536933#28 -319536933#27 -319536933#26 -319536933#25 -319536933#24 -319536933#23 -319536933#22 -319536933#21 319536962#7 319536962#8 319536962#9 319536962#10 319536932#8"/>
    </vehicle>
    <vehicle id="3" type="passenger" depart="15.00">
        <route edges="360845850 -326190897#10 -360330056#2 -360330056#1 -360330056#0 -623813383#1 -623813383#0 1254835658 1254833671 50335622#0 50335622#1 50335622#2 50335622#3 50335622#4 50335622#5 50335622#6 50335622#7 50335622#8 50335622#9 50335622#10 50335622#11 50335622#12 50335622#13 50335622#14 50335622#15 50335622#16 50335622#17 50335622#18 50335622#19 191034692#2 728048258#0 728048258#1 728048259#0 728048259#1 728048259#2 728048259#3 728048255#0 728048255#1 -26654222#11 -26654222#10 -26654222#9 -26654222#8 -26654222#6 -26654222#5 -26654222#4 -26654222#2 -26654222#1 -26654222#0 728955238#1 728955238#2 -319513921#1 -319513921#0 319513929#0 319513929#1 728654288#0 728654288#1 358302713#0 -28186488#3 -28186483#7 -28186483#6 -28186483#5"/>
    </vehicle>
    <vehicle id="4" type="passenger" depart="20.00">
        <route edges="-822403023#3 822403022#0 822403022#1 -142759061#10 -142759061#9 -142759061#8 -142759061#7 -142759061#6 -142759061#5 -142759061#4 -142759061#3 -142759061#2 -142759061#1 -142759061#0 -28121214#27 -28121214#26 -28121214#25 -28121214#24 -28121214#23 -28121214#22 -28121214#21 -28121214#20 -28121214#19 -28121214#18 -28121214#17 -28121214#16 -28121214#15 -28121214#14 -28121214#13 -28121214#12 -28121214#11 -28121214#10 -28121214#9 -28121214#8 -28121214#7 -28121214#6 -28121214#5 -425537662#6 -425537662#4 -425537662#3 -425537662#2 -425537662#1 -425537662#0 -155751165#19 -155751165#18 -155751165#17 -155751165#16 -155751165#15 -155751165#14 -155751165#12 -155751165#11 -155751165#10 -155751165#9 -155751165#7 -155751165#6"/>
    </vehicle>
    <vehicle id="5" type="passenger" depart="25.00">
        <route edges="-319657621#1 -319657621#0 -28195477#1 -28195477#0 1434327071#0 1434327071#1 1434327072#0 1434327072#1 843859633#1 843859633#2 843859633#3 843859633#4 843859633#5 843859633#6 843859633#7 843859633#8 843859633#9 843859633#10 843859633#11 843859633#12 383440537#0 383440537#1 26652793#4 425537666#0 425537666#1 151441963#1 151441963#2 151441963#3 151441963#4 191034692#7 191034692#1 191034692#2 191034692#3 191034692#4 -425537664 -425537662#7 -425537662#6 -425537662#4 -425537662#3 -425537662#2 -425537662#1 -425537662#0 -8285861#4 -8285861#3 -8285861#2 -8285861#1 -8285861#0 319091449#2 319091449#3 319091449#4 319091449#5 -728048249#1 -728048249#0 1374343109 728048251 8285868#1 8285868#2 85564968#0 85564968#1 85564968#2 728048247-AddedOnRampEdge 728048247 729016165#1 728065452 -28186538#4 -28485604#2 -28485604#1 -28485604#0 -28485610#6 1315248296#0"/>
    </vehicle>
    <vehicle id="6" type="passenger" depart="30.00">
        <route edges="-1303398338#0 319510013#4 425537662#2 425537662#3 425537662#4 425537662#6 -28121214#4 -28121214#3 -28121214#2 -28121214#1 -28121214#0 728048259#6 728048259#7 728048259#0 728048259#1 728048259#2 728048259#3 728048255#0 728048255#1 -26654222#11 -26654222#10 -26654222#9 -26654222#8 -26654222#6 -26654222#5 -26654222#4 -26654222#2 -26654222#1 -26654222#0 360832349#1 360832349#2 360832349#3 360832349#4 360832349#5 360832349#6 360832349#7 360832349#8 360832349#9 360832349#10 360832352 360836355#1 360836355#2 360836355#3 360836355#4 360836355#6 360836355#7 360836355#8 28195135#1 28195135#3 28195135#4 28195135#5 28195135#6 28195135#7 28195135#8 28195135#9 28195135#10 28195135#12 28195135#13 28195135#14 28195135#15 -319540046#5 -319540046#4 -319540046#3 -319540046#2"/>
    </vehicle>
    <vehicle id="7" type="passenger" depart="35.00">
        <route edges="315927366 -315927359#3 -315927359#2 -315927359#1 -315927359#0 85578073#0 85578073#1 85578073#2 85578073#3 85578073#4 826361125 50218330#0 50218330#1 50218330#2 50218330#3 229486918#6 229486918#7 229486918#8 229486918#9 229486918#10 -26654372#24 -26654372#23 -26654372#22 -26654372#21 -26654372#20 -26654372#19 -26654372#18 -26654372#16 -26654372#15 -26654372#14 -26654372#13 -26654372#12 -26654372#10 -26654372#9 -26654372#7 -26654372#6 -26654372#5 -26654372#4 -26654372#3 -26654372#2 -26654372#1 -26654372#0 -26654369#4 -8285861#2 -8285861#1 -8285861#0 319091449#2 319091449#3 85564969#0 85564969#1 85564969#2 85564969#3 1293792657 26610166#0 26610166#1 26610166#2 26610166#3 -319513921#1 -319513921#0 319513929#0 319513929#1 728654288#0 728654288#1 358302713#0 358302713#1 358302713#2 358302713#3 -826353779#8 319663654#0 319663654#2 319663654#3 319663654#4 319663654#5 319663654#6 319663654#7 319663654#8 319663654#9 319663654#10 319663654#11 319663654#12 319663654#13 319663654#14 319663654#15 319663654#16 319663654#17 319663654#19 -86264731#9 -86264731#8 -86264731#7 -86264731#6 -86264731#5 -86264731#4 -86264731#3 -86264731#2 -86264731#1 -86264731#0 -1198923531#2 -1198923531#1 -1198923531#0 -233249037#20 -233249037#19 -233249037#18 -233249037#17 -233249037#16 -233249037#14 -233249037#13 -233249037#12 -233249037#11 -233249037#10 -233249037#9 -233249037#8 -233249037#7 -233249037#6 -233249037#5 -233249037#4 -233249037#3 -233249037#2 -233249037#1 -233249037#0 -86260525#8 -86260525#7 -86260525#6 -86260525#4 -86260525#3 -86260525#2 233249040#0 233249040#1 233249040#2"/>
    </vehicle>
    <vehicle id="8" type="passenger" depart="40.00">
        <route edges="-319657642#2 -319657642#1 -319657642#0 -425778956#2 -425778956#1 -425778956#0 -425981517 425981521#0 425981521#1 -85572505#2 -85572505#1 -85572505#0 1434327071#0 1434327071#1 1434327072#0 1434327072#1 843859633#1 843859633#2 843859633#3 843859633#4 843859633#5 843859633#6 843859633#7 843859633#8 843859633#9 843859633#10 843859633#11 843859633#12 383440537#0 383440537#1 26652793#4 425537666#0 425537666#1 151441963#1 151441963#2 151441963#3 151441963#4 191034692#7 191034692#1 191034692#2 728048258#0 728048258#1 728048259#0 728048259#1 728048259#2 728048259#3 728048255#0 728048255#1 -26654222#11 -26654222#10 -26654222#9 -26654222#8 -26654222#6 -26654222#5 -26654222#4 -26654222#2 -26654222#1 -26654222#0 360832349#1 360832349#2 360832349#3 360832349#4 360832349#5 360832349#6 360832349#7 360832349#8 360832349#9 360832349#10 360832352 360836355#1 360836355#2 360836355#3 360836355#4 50335653#1 50335653#2 50335653#4 -319540038#4 -319540038#3 319540024#0 319540024#1 319540024#2 28213535#3"/>
    </vehicle>
    <vehicle id="9" type="passenger" depart="45.00">
        <route edges="326150420#0 -360695050#1 -360695050#0 -826088060 -360695044#3 -360695044#2 -360695044#1 -360695044#0 -313176060#12 -313176060#11 -313176060#10 -313176060#9 -313176060#8 -313176060#7 -313176060#6 -313176060#5 -313176060#4 -313176060#3 -313176060#2 -313176060#1 -313176060#0 -313176054 -258252907#2 -258252907#1 -258252907#0 -313176063#1 -313176063#0 -313176065#0 -85578082#0 316755621#5 316755621#1 -1387158585#15 -1387158585#14 -1387158585#13 -1387158585#12 -1387158585#11 -1387158585#10 -1387158585#9 -1387158585#8 -1387158585#7 -1387158585#6 -1387158585#4 -1387158585#3 -1387158585#2 -1387158585#1 -1387158585#0 -1387158584 -1387158586 -383440536 151441964#0 383440533 383440534#1 383440535#0 383440535#1 383440535#3 383440535#5 383440535#6 383440535#7 383440535#8 360339251#1 360339251#3 233249045 632625101#1 632625101#2 632625101#3 50335684#0 50335684#1 50335684#2 50335684#4 50335688#0 50335688#1 319542920 50336429#2 319542686#1 319542686#2"/>
    </vehicle>
    <vehicle id="10" type="passenger" depart="50.00">
        <route edges="-360315596 -360315593#0 -360315578#4 -360315578#3 -360315578#2 -360315578#1 -360315578#0 -258147040#7 -258147026#1 -258147026#0 319663200#16 319663200#17 319663200#19 319663200#20 319663200#21 319663200#22 319663200#23 319663200#24 319663200#25 319663200#26 319663200#27 -623813364#4 -623813364#2 -623813364#1 -623813364#0 -632625105#8 -632625105#7 -632625105#6 -632625105#5 -632625105#4 -632625105#3 -632625105#2 -632625105#1 -632625105#0 632625101#2 632625101#3 632625101#4 632625101#5 -191034693#14 -191034693#13 -191034693#12 -191034693#11 -191034693#10 -191034693#9 -191034693#8 -191034693#7 -191034693#6 -191034693#5 -191034693#4 -191034693#3 -191034693#2 -191034693#1 -191034693#0 50335622#19 191034692#2 191034692#3 191034692#4 -425537664 -425537662#7 28121214#5 28121214#6 28121214#7 28121214#8 28121214#9 28121214#10 28121214#11 28121214#12 28121214#13 28121214#14 28121214#15 28121214#16 28121214#17 28121214#18 28121214#19 28121214#20 28121214#21 28121214#22 28121214#23 28121214#24 28121214#25 28121214#26 28121214#27 28121214#28 28121214#29 28121214#30 28121214#31 28121214#32 28121214#33 28121214#34 28121214#36 28121214#37 28121214#38 28121214#39 28121214#40 28121214#41 28121214#42 28121214#43 28121214#44 28121214#45 28121214#46 28121214#47 -229486918#6 -50218330#3 -50218330#2 -50218330#1 -50218330#0 -31136031#5 -31136031#4 -31136031#2 -31136031#1 -31136031#0 318356805#5 318356805#6 318356805#7 318356805#1 824133530#0 824133530#1 824133530#2 824133530#3 844274540 318356807 -193672401#9 -193672401#8 -193672401#7 -193672401#6 -193672401#5 -193672401#4 -193672401#3 -193672401#2 -193672401#1 844268676#0 844268675#2 -1368372594#10 -1368372594#9 -1368372594#8 -1368372594#7 -1368372594#6 316169370#0 -316169371#1"/>
    </vehicle>
    <vehicle id="11" type="passenger" depart="55.00">
        <route edges="826123049 -488366403#2 -488366403#1 -826123052#0 1202288398#7 1303247953#0 1303247953#1 1303247953#2 1303247953#3 1303247953#5 1303247953#7 -824133530#3 -824133530#2 -824133530#1 -824133530#0 318356805#2 318356805#3 318356805#4 31136031#0 31136031#1 31136031#2 31136031#4 31136031#5 50218330#0 50218330#1 50218330#2 50218330#3 229486918#6 229486918#7 229486918#8 229486918#9 229486918#10 358302717#0 358302717#1 358302717#2 358302717#3 358302717#5 358302717#6 358302717#7 358302717#8 316747151#2 316747151#3 316747151#4 316747150#0 316747150#1 316747150#2 316747150#3 316747150#4 316747150#5 316747150#6 316747150#7 26610044#0 316324619#0 316324619#1 316324619#2 316324619#2-AddedOffRampEdge 316324619#3 26610092#3 26610092#4 26610092#5 1369034658 26652690#1 26652690#2 26652690#3 1303236784#0 1303236784#1-AddedOnRampEdge 1303236784#1 1303236785 -1303236786#1 -1303236786#0 -28186529#1 -28186529#0 -727818896#0 1315250725 360318384#0 360318384#1 -360318372 -360318388#2"/>
    </vehicle>
    <vehicle id="12" type="passenger" depart="60.00">
        <route edges="-28186493#4 -319512813#3 -319512813#2 -319512813#1 -319512813#0 319512088#2 319512088#3 319512088#4 319512088#5 319512088#6 319512088#7 319512088#8 319512088#9 319512088#10 319512088#11 319512088#12 319512088#13 360832349#8 360832349#9 360832349#10 360832352 360836355#1 360836355#2 360836355#3 360836355#4 360836355#6 360836355#7 360836355#8 28195135#1 28195135#3 28195135#4 28195135#5 28195135#6 28195135#7 28195135#8 28195135#9 28195135#10 28195135#12 28195135#13 28195135#14 28195135#15 28195135#16 28195135#18 358303102#0 358303102#1 358303102#3 358303102#4 358303102#5 358303102#7 358303102#8 358303102#9 358303102#10 843963074#1 843963073#0 843963073#2 28195257#0 28195276#0 -360511867 -28195257#1"/>
    </vehicle>
    <vehicle id="13" type="passenger" depart="65.00">
        <route edges="360330381#1 360330381#2 623813392#1 826406184#0 826406184#1 -28213791#0 843963075#1 425778960#2 425778960#3 -826952962 1254835657#1 1254835657#2 319542663#0 1254835658 1254833671 50335622#0 50335622#1 50335622#2 50335622#3 50335622#4 50335622#5 50335622#6 50335622#7 50335622#8 50335622#9 50335622#10 50335622#11 50335622#12 50335622#13 50335622#14 50335622#15 50335622#16 50335622#17 50335622#18 50335622#19 191034692#2 191034692#3 191034692#4 -425537664 -425537662#7 -425537662#6 -425537662#4 -425537662#3 -425537662#2 -319510013#4 -319510013#3 -319510013#2 -1303398336 -319510009#2 -319510009#1 -1059854108#2 28245990#5 28245990#6"/>
    </vehicle>
    <vehicle id="14" type="passenger" depart="70.00">
        <route edges="326151115#2 326151104#3 326151104#4 326151104#5 326151104#7 -326151116#0 326151125#1 326151125#2 326151125#3 358229380#4 -313176059 -313176063#10 -313176063#7 -313176063#6 -313176063#5 -313176063#4 -313176063#3 -313176063#2 -313176063#1 -313176063#0 -313176065#0 -85578082#0 316755621#5 316755621#1 -1387158585#15 -1387158585#14 -1387158585#13 -1387158585#12 -1387158585#11 -1387158585#10 -1387158585#9 -1387158585#8 -1387158585#7 -1387158585#6 -1387158585#4 -1387158585#3 -1387158585#2 -1387158585#1 -1387158585#0 -1387158584 -1387158586 -383440536 151441964#0 151441964#1 26652793#2 26652793#3 26652793#4 425537666#0 425537666#1 151441963#1 151441963#2 151441963#3 151441963#4 191034692#7 191034692#1 191034692#2 728048258#0 728048258#1 728048259#0 728048259#1 728048259#2 728048259#3 728048255#0 728048255#1 -26654222#11 -26654222#10 -26654222#9 -26654222#8 -26654222#6 -26654222#5 -26654222#4 -26654222#2 -26654222#1 -26654222#0 728955238#1 728955238#2 -319513921#1 -319513921#0 319513929#0 319513929#1 728654288#0 728654288#1 358302713#0 358302713#1 358302713#2 358302713#3 -826353779#8 319663654#0 319663654#2 319663654#3 319663654#4 319663654#5 319663654#6 319663654#7 319663654#8 319663654#9 319663654#10"/>
    </vehicle>
    <vehicle id="15" type="passenger" depart="75.00">
        <route edges="231429519#5 -231429520#1 -193614218#3 -193614218#2 -193614218#1 -193614218#0 193614217#0 193614217#1 193614217#2 193614217#4 193614217#5 193614217#6 193614217#7 193614217#8 -229549751#1 -229549751#0 318356805#1 318356805#2 318356805#3 318356805#4 31136031#0 31136031#1 31136031#2 31136031#4 31136031#5 50218330#0 50218330#1 50218330#2 50218330#3 229486918#6 -28121214#47 -28121214#46 -28121214#45 -28121214#44 -28121214#43 -28121214#42 -28121214#41 -28121214#40 -28121214#39 -28121214#38 -28121214#37 -28121214#36 -28121214#34 -28121214#33 -28121214#32 -28121214#31 -28121214#30 -28121214#29 -28121214#28 -28121214#27 -28121214#26 -28121214#25 -28121214#24 -28121214#23 -28121214#22 -28121214#21 -28121214#20 -28121214#19 -28121214#18 -28121214#17 -28121214#16 -28121214#15 -28121214#14 -28121214#13 -28121214#12 -28121214#11 -28121214#10 -28121214#9 -28121214#8 -28121214#7 -28121214#6 -28121214#5 425537662#7 425537662#8 191034692#5 191034692#6 191034692#7 1188918411#0 1188918411#1 1188918411#2 1188918411#3 1188918411#4 1188918411#5 1188918411#6 1188918411#7 1188918411#8 1188918411#9 319542653#3 319542653#4 50335647#1 50335647#2 50335647#3 50335647#5 50335647#6 50335647#7 50335647#8 826414528#0 826414527 826414528#10"/>
    </vehicle>
    <vehicle id="16" type="passenger" depart="80.00">
        <route edges="-360693964#5 -360693964#4 -360693964#2 -360693964#1 -360693964#0 257431306#2 257431306#3 747763040#13 747763040#14 747763040#15 747763040#16 747763040#17 232220448#0 232220448#1 232220448#3 232220448#4 -360695053#5 257431313#0 257431313#1"/>
    </vehicle>
    <vehicle id="17" type="passenger" depart="85.00">
        <route edges="360213518#0 231429521#1 231429522#1 193442325#12 193442325#13 1203055477#2 1203055477#3 1203055477#4 396126123#1 396126123#2 396126123#3 396126123#4 396126123#5 396126123#6 396126123#7 396126123#8 24563856#1 24563856#2 313176046#0 313176046#1 313176046#2 313176046#3 396121255#2 396121255#3 396121255#4 234376521#0 234376521#1 234376521#2 358989529#0 358989529#1 358989529#3 358989529#4 -230599252#1 -230599252#0 28451047#3"/>
    </vehicle>
    <vehicle id="18" type="passenger" depart="90.00">
        <route edges="360515282#3 360515282#4 360515282#5 360515282#6 360515282#7 360515282#8 360515282#9 360515282#10 -319559346#6 -319559346#5 -319559346#4 -319559346#3 -319559346#2 -319559346#1 -319559346#0 -319559347#2 -319559347#1 -319559347#0 -319558343#17 -319558343#15 -319558343#14 -319558343#13 -319558343#12 -319558343#11 -319558343#10 -319558343#9 -319558343#8 -319558343#7 -319558343#6 -319558343#5 -319558343#4 -319558343#3 -319558343#2 -319558343#1 728955242#5 728955244#1 728955244#2 728955244#3 728955244#4 728955244#5 728955244#6 728955244#7 728955244#8 728955244#10 728955244#11 728955244#12 728955244#13 728955246#1 -319512088#13 -319512088#12 -319512088#11 -319512088#10 -319512088#9 -319512088#8 -319512088#7 -319512088#6 319512814#0 319512814#1 319512814#2 319512814#3 28186493#8"/>
    </vehicle>
    <vehicle id="19" type="passenger" depart="95.00">
        <route edges="319542683#3 -86260550#1 -86260550#0 -50335653#13 -50335653#12 -50335653#11 -50335653#10 -50335653#9 -50335653#8 -50335653#7 -50335653#6 -50335653#4 -50335653#2 -50335653#1 728955244#10 728955244#11 728955244#12 728955244#13 728955246#1 728955246#2 728955246#3 728955246#4 85564958#0 85564958#1 85564958#2 85564958#3 85564958#4 85564958#5 85564958#7 85564958#8 85564958#9 728048259#3 728048259#4 728048259#5 28121214#0 28121214#1 28121214#2 28121214#3 28121214#4 28121214#5 28121214#6 28121214#7 28121214#8 28121214#9 28121214#10 28121214#11 28121214#12 28121214#13 28121214#14 28121214#15 28121214#16 28121214#17 28121214#18 28121214#19 28121214#20 28121214#21 28121214#22 28121214#23 28121214#24 28121214#25 28121214#26 28121214#27 28121214#28 28121214#29 28121214#30 28121214#31 28121214#32 28121214#33 28121214#34 28121214#36 28121214#37 28121214#38 28121214#39 28121214#40 28121214#41 28121214#42 28121214#43 28121214#44 28121214#45 28121214#46 28121214#47 -229486918#6 -50218330#3 -50218330#2 -50218330#1 -50218330#0 -31136031#5 -31136031#4 -31136031#2 -31136031#1 -31136031#0 318356805#5 318356805#6 318356805#7 318356805#1 824133530#0 824133530#1 824133530#2 824133530#3 844274540 318356807 -193672401#9 -193672401#8 -193672401#7 -193672401#6 -193672401#5 -193672401#4 -193672401#3 -231431526#11 -231431526#10 -231431526#9 -231431526#8 -231431526#7 -231431526#6 -231431526#4 -231431526#3 -231431526#2 231431525#2 231431525#3 231431525#4 824764748#2 -824764736 -231431523#8"/>
    </vehicle>
    <vehicle id="20" type="passenger" depart="100.00">
        <route edges="-319659794#3 -319659794#2 319659795#0 -360339275#2 -360339275#1 -360339275#0 -319659791#2 -319659791#1 -319659791#0 826132292#4 -383440535#1 -383440535#0 -843859633#12 -843859633#11 -843859633#10 -843859633#9 -843859633#8 -843859633#7 -843859633#6 -843859633#5 -843859633#4 -843859633#3 -843859633#2 -843859633#1 -843859633#0 -1434327072#0 1434327073#1 1434327073#2 1434327073#3 85572505#0 85572505#1 85572505#2 85572505#3 85572505#4 85572505#5 85572505#6 85572505#7 85572505#8 85572505#9 85572505#10 85572505#11 85572505#12 28233457#1 28233457#2 28233457#3 28233457#4 28233457#5 28233457#6 728942335 28233373#0 28233373#1 28233373#2 28233373#3 28233373#4 -844008878 730048999#0 730048999#1 730048999#2 232219234#4 231936626 231936625#0 231936625#1 824133532 824133534#0 824133534#1 824133534#2 824133534#3 824133534#4 824133534#5 824133534#6 -236834397#15 -236834397#14 -236834397#13 86260509#0 -326135798#0"/>
    </vehicle>
    <vehicle id="21" type="passenger" depart="105.00">
        <route edges="-26654756#1 -26654756#0 312017991#1 312017991#2 316355218#5 316355218#1 312017990#0 312017990#1 312017990#2 315477291#2 315477291#3 1303239186 396121255#8 396121255#1 396121255#2 1314559755 396121254#0 396121254#2 28449958#1 28449958#2 28449958#3 134268950 358318312#1 316747151#1 316747151#2 316747149#0 316747149#1 316747149#2 316747149#3 316747149#4 316747149#5 316747149#6 316747149#7 316747149#8 316747149#9 316747149#10 155751165#1 155751165#2 155751165#3 155751165#4 155751165#5 155751165#6 155751165#7 155751165#9 155751165#10 155751165#11 155751165#12 155751165#14 155751165#15 155751165#16 155751165#17 155751165#18 155751165#19 425537662#0 425537662#1 425537662#2 425537662#3 425537662#4 425537662#6 425537662#7 425537662#8 191034692#5 191034692#6 191034692#7 1188918411#0 191034693#0 191034693#1 191034693#2 191034693#3 191034693#4 191034693#5 191034693#6 191034693#7 191034693#8 191034693#9 191034693#10 191034693#11 191034693#12 191034693#13 191034693#14 632625101#6 632625101#1 632625105#0 632625105#1 632625105#2 632625105#3 632625105#4 632625105#5 632625105#6 632625105#7 632625105#8 623813364#0 623813364#1 623813364#2 623813364#4 -319663200#27 -319663200#26 -319663200#25 -319663200#24 -319663200#23 -319663200#22 -319663200#21 -319663200#20 -319663200#19 -319663200#17 -319663200#16 -319663200#15 -319663200#14 -319663200#13 -319663200#12 -319663200#11 -319663200#10 -319663200#9 -319663200#8 -319663200#7 -319663200#6 -319663200#5 -319663200#4"/>
    </vehicle>
    <vehicle id="22" type="passenger" depart="110.00">
        <route edges="-28195257#5 -28195257#4 1254838433 425778960#0 843963075#3 -843963074#1 -843963074#0 -358303102#9 -358303102#8 -358303102#7 -358303102#5 -358303102#4 -358303102#3 -358303102#1 -358303102#0 -28195135#18 -28195135#16 -28195135#15 -28195135#14 -28195135#13 -28195135#12 -28195135#10 -28195135#9 -28195135#8 -28195135#7 -28195135#6 -28195135#5 -28195135#4 -28195135#3 -28195135#1 360836355#9 360836355#10 728955247#1 728955247#2 728955247#3 728955247#4 728955247#5 85564978#1 85564978#2 85564978#4 85564978#5 85564978#6 85564978#7 85564978#8 324871546#0 324871546#1 324871546#2 324871546#3 -324877342#2"/>
    </vehicle>
    <vehicle id="23" type="passenger" depart="115.00">
        <route edges="28496282 -844268669#3 -844268669#2 -844268669#1 -844268669#0 -233244375#2 -233244375#1 -86260553#9 -86260553#8 -86260553#7 -86260553#6 -86260553#5 -86260553#4 -86260553#3 -86260553#2 -86260553#0 -233249037#17 -233249037#16 -233249037#14 -233249037#13 -233249037#12 -233249037#11 -233249037#10 -233249037#9 -233249037#8 -233249037#7 -233249037#6 -233249037#5 -233249037#4 -233249037#3 -233249037#2 -233249037#1 -233249037#0 86264727#0 -360494740#31 -360494740#30 -360494740#29 -360494740#27 -360494740#26 -360494740#25 -360494740#24 -360494740#23 -360494740#22 -360494740#20 -360494740#19 -360494740#18 -360494740#17 -360494740#15 -360494740#14 -360494740#13 -360494740#12 -360494740#11 -360494740#10 -360494740#9 -360494740#8 -360494740#6 -360494740#5 -360494740#4 -360494740#3 -360494740#2 -360494740#1 -86260563#4 -320147282#8 -320147282#7 -320147282#5 -320147282#4 -320147282#3 -320147282#2 -320147282#1 -320147282#0 324877336#1 -360494708 320147276 320147263#0 320147263#1 320147263#2 320147263#4 320147263#5 320147263#6 85564978#21 85564978#22 85564978#23 85564978#24 85564978#25 85564978#26 28195371#0 28195371#1 28195371#2 28195371#3 28195371#4 28195371#5 28195371#7 28195371#8 28195371#9 28195371#10 28195371#11 28195371#12 28195371#14 28195371#15 28195371#16 28195371#17 28195371#18 28195371#20 28195371#21 28195371#22 28195371#23 28195371#24 28195371#25 28195371#26 28195371#27 28195371#28 28195371#29 28195371#30 28195371#31 233244374#0 233244374#1 233244374#2 233244374#3 233244374#4 233244374#5 233244374#6 -424874723#7 86260535#5 86260535#6 86260535#7 360503679#4 360503679#5 360503679#6 360503679#7 360503679#8 825727969#0 825727969#1 825727969#2 -360688842#0 -360688893#0 -360688891#1"/>
    </vehicle>
    <vehicle id="24" type="passenger" depart="120.00">
        <route edges="-360688870#1 -360688868#0 -86260535#12 -86260535#11 -86260535#9 -86260535#7 -86260535#6 -86260535#5 424874723#7 -233244374#6 -233244374#5 -233244374#4 -233244374#3 -233244374#2 -233244374#1 -233244374#0 -28195371#31 -28195371#30 -28195371#29 -28195371#28 -28195371#27 -28195371#26 -28195371#25 -28195371#24 -28195371#23 -28195371#22 -28195371#21 -28195371#20 -28195371#18 -28195371#17 -28195371#16 -28195371#15 -28195371#14 -28195371#12 -28195371#11 -28195371#10 -28195371#9 -28195371#8 -28195371#7 -28195371#5 -28195371#4 -28195371#3 -28195371#2 -28195371#1 -320145116 728955241#4 728955241#5 728955241#6 728955241#7 728955241#8 728955241#9 728955241#10 728955241#12 728955241#13 728955241#14 728955241#15 728955241#16 728955241#17 728955241#18 728955241#19 728955241#20 728955241#21 728955241#22 728955241#23 728955241#24 728955241#25 728955241#26 728955241#28 728955241#29 728955242#0 -319562610#2 -319562610#1"/>
    </vehicle>
    <vehicle id="25" type="passenger" depart="125.00">
        <route edges="-320147256 -320147255#1 -320147252 360515462#4 360515462#5 360515462#6 360515462#7 85564978#20 85564978#21 85564978#22 -86260554#14 -86260554#13 -86260554#12 -86260554#11 -86260554#10 -86260554#9 -86260554#8 -86260554#7 -86260554#6 -86260554#5 -86260554#4 -86260554#3 -86260554#2 -86260554#1 320144199#0 320144199#1 320144199#2 320144199#4 320144199#5 320144199#6 -320144194#1 -320144194#0 -233249040#10 -233249040#9 -233249040#8 -233249040#7 -233249040#6 -320147336#1 -320147336#0 824548684"/>
    </vehicle>
    <vehicle id="26" type="passenger" depart="130.00">
        <route edges="315427805 1203055121 315427804#2 315427804#4 315427804#5 315427804#6 315427804#7 -313176063#3 -313176063#2 -313176063#1 -313176063#0 -313176065#0 -85578082#0 316755621#5 316755621#1 -1387158585#15 -1387158585#14 -1387158585#13 -1387158585#12 -1387158585#11 -1387158585#10 -1387158585#9 -1387158585#8 -1387158585#7 -1387158585#6 -1387158585#4 -1387158585#3 -1387158585#2 -1387158585#1 -1387158585#0 -1387158584 -1387158586 -383440536 151441964#0 151441964#1 26652793#2 26652793#3 26652793#4 425537666#0 425537666#1 151441963#1 151441963#2 151441963#3 151441963#4 191034692#7 191034692#1 191034692#2 728048258#0 728048258#1 728048259#0 728048259#1 728048259#2 728048259#3 728048255#0 728048255#1 -26654222#11 -26654222#10 -26654222#9 -26654222#8 -26654222#6 -26654222#5 -26654222#4 -26654222#2 -26654222#1 -26654222#0 728955238#1 728955238#2 -319513921#1 -319513921#0 319513929#0 319513929#1 728654288#0 826353776 -28131592#5 -28131592#4 -28131592#3 -28131592#2 -28131592#0 316747950#1 -729085243#14 -729085243#13 -729085243#12 -729085243#11 -729085243#10 -729085243#9 -729085243#8 -729085243#7 -729085243#6 -729085243#5 -729085243#4 -729085243#3 -729085243#1 -729085243#0 1244097847#0 1244097847#1 1244097847#2 1244097847#3 1244097847#4 28244309#1 28244309#2 28244309#3 28244309#4 28244309#5 361389057#1 28268646#4 28244273#7 28268720#6"/>
    </vehicle>
    <vehicle id="27" type="passenger" depart="135.00">